/*--------------------------------*- C++ -*----------------------------------*\
| =========                 |                                                 |
| \\      /  F ield         | OpenFOAM: The Open Source CFD Toolbox           |
|  \\    /   O peration     | Version:  2.1.1                                 |
|   \\  /    A nd           | Web:      www.OpenFOAM.org                      |
|    \\/     M anipulation  |                                                 |
\*---------------------------------------------------------------------------*/
FoamFile
{
    version     2.0;
    format      ascii;
    class       dictionary;
    location    "constant/polyMesh";
    object      blockMeshDict;
}
// * * * * * * * * * * * * * * * * * * * * * * * * * * * * * * * * * * * * * //

vertices        882 ( ( 4000 4000 266.741729736 ) ( 4100 4000 274.000061035 ) ( 4100 4100 273.755340576 ) ( 4000 4100 299.824066162 ) ( 4000 4000 1000 ) ( 4100 4000 1000 ) ( 4100 4100 1000 ) ( 4000 4100 1000 ) ( 4100 4200 303.146972656 ) ( 4000 4200 305.362304688 ) ( 4100 4200 1000 ) ( 4000 4200 1000 ) ( 4100 4274.609375 319.854418601 ) ( 4000 4274.609375 305.701750017 ) ( 4100 4274.609375 1000 ) ( 4000 4274.609375 1000 ) ( 4100 4332.8125 324.130421843 ) ( 4000 4332.8125 315.686660911 ) ( 4100 4332.8125 1000 ) ( 4000 4332.8125 1000 ) ( 4100 4371.09375 328.600601073 ) ( 4000 4371.09375 324.654113884 ) ( 4100 4371.09375 1000 ) ( 4000 4371.09375 1000 ) ( 4100 4400 332.712493896 ) ( 4000 4400 329.306274414 ) ( 4100 4400 1000 ) ( 4000 4400 1000 ) ( 4100 4425 337.782296476 ) ( 4000 4425 329.467580938 ) ( 4100 4425 1000 ) ( 4000 4425 1000 ) ( 4100 4450 342.555486119 ) ( 4000 4450 328.124433052 ) ( 4100 4450 1000 ) ( 4000 4450 1000 ) ( 4100 4475 346.826650572 ) ( 4000 4475 325.942653373 ) ( 4100 4475 1000 ) ( 4000 4475 1000 ) ( 4100 4500 350.405944824 ) ( 4000 4500 323.610229492 ) ( 4100 4500 1000 ) ( 4000 4500 1000 ) ( 4100 4525 351.891860446 ) ( 4000 4525 322.87667301 ) ( 4100 4525 1000 ) ( 4000 4525 1000 ) ( 4100 4550 352.818886672 ) ( 4000 4550 321.889269693 ) ( 4100 4550 1000 ) ( 4000 4550 1000 ) ( 4100 4575 352.994293824 ) ( 4000 4575 321.796185735 ) ( 4100 4575 1000 ) ( 4000 4575 1000 ) ( 4100 4600 352.224517822 ) ( 4000 4600 323.766693115 ) ( 4100 4600 1000 ) ( 4000 4600 1000 ) ( 4100 4628.90625 351.130992086 ) ( 4000 4628.90625 330.996530058 ) ( 4100 4628.90625 1000 ) ( 4000 4628.90625 1000 ) ( 4100 4667.1875 350.247890078 ) ( 4000 4667.1875 339.222137545 ) ( 4100 4667.1875 1000 ) ( 4000 4667.1875 1000 ) ( 4100 4725.390625 345.669988197 ) ( 4000 4725.390625 347.299941294 ) ( 4100 4725.390625 1000 ) ( 4000 4725.390625 1000 ) ( 4100 4800 335.885223389 ) ( 4000 4800 345.024993896 ) ( 4100 4800 1000 ) ( 4000 4800 1000 ) ( 4100 4900 328.177642822 ) ( 4000 4900 338.507446289 ) ( 4100 4900 1000 ) ( 4000 4900 1000 ) ( 4100 5000 318.579681396 ) ( 4000 5000 325.186523438 ) ( 4100 5000 1000 ) ( 4000 5000 1000 ) ( 4200 4000 293.638916016 ) ( 4200 4100 282.636260986 ) ( 4200 4000 1000 ) ( 4200 4100 1000 ) ( 4200 4200 300.482788086 ) ( 4200 4200 1000 ) ( 4200 4274.609375 325.447913009 ) ( 4200 4274.609375 1000 ) ( 4200 4332.8125 339.835235806 ) ( 4200 4332.8125 1000 ) ( 4200 4371.09375 347.685758754 ) ( 4200 4371.09375 1000 ) ( 4200 4400 353.077758789 ) ( 4200 4400 1000 ) ( 4200 4425 356.524248654 ) ( 4200 4425 1000 ) ( 4200 4450 359.673297032 ) ( 4200 4450 1000 ) ( 4200 4475 362.064869466 ) ( 4200 4475 1000 ) ( 4200 4500 363.266967773 ) ( 4200 4500 1000 ) ( 4200 4525 363.568081319 ) ( 4200 4525 1000 ) ( 4200 4550 362.224779826 ) ( 4200 4550 1000 ) ( 4200 4575 359.894573957 ) ( 4200 4575 1000 ) ( 4200 4600 357.260925293 ) ( 4200 4600 1000 ) ( 4200 4628.90625 353.577978288 ) ( 4200 4628.90625 1000 ) ( 4200 4667.1875 347.611405045 ) ( 4200 4667.1875 1000 ) ( 4200 4725.390625 338.373465154 ) ( 4200 4725.390625 1000 ) ( 4200 4800 326.716430664 ) ( 4200 4800 1000 ) ( 4200 4900 313.923156738 ) ( 4200 4900 1000 ) ( 4200 5000 306.332885742 ) ( 4200 5000 1000 ) ( 4274.609375 4000 302.782696146 ) ( 4274.609375 4100 287.518468626 ) ( 4274.609375 4000 1000 ) ( 4274.609375 4100 1000 ) ( 4274.609375 4200 299.936747846 ) ( 4274.609375 4200 1000 ) ( 4274.609375 4274.609375 318.481412399 ) ( 4274.609375 4274.609375 1000 ) ( 4274.609375 4332.8125 337.907860097 ) ( 4274.609375 4332.8125 1000 ) ( 4274.609375 4371.09375 349.652336473 ) ( 4274.609375 4371.09375 1000 ) ( 4274.609375 4400 357.912507475 ) ( 4274.609375 4400 1000 ) ( 4274.609375 4425 362.629385578 ) ( 4274.609375 4425 1000 ) ( 4274.609375 4450 366.612201921 ) ( 4274.609375 4450 1000 ) ( 4274.609375 4475 369.346000737 ) ( 4274.609375 4475 1000 ) ( 4274.609375 4500 370.080587211 ) ( 4274.609375 4500 1000 ) ( 4274.609375 4525 369.319365916 ) ( 4274.609375 4525 1000 ) ( 4274.609375 4550 367.221557833 ) ( 4274.609375 4550 1000 ) ( 4274.609375 4575 363.882592668 ) ( 4274.609375 4575 1000 ) ( 4274.609375 4600 359.713893155 ) ( 4274.609375 4600 1000 ) ( 4274.609375 4628.90625 354.678698758 ) ( 4274.609375 4628.90625 1000 ) ( 4274.609375 4667.1875 347.587116688 ) ( 4274.609375 4667.1875 1000 ) ( 4274.609375 4725.390625 340.501537689 ) ( 4274.609375 4725.390625 1000 ) ( 4274.609375 4800 336.612884329 ) ( 4274.609375 4800 1000 ) ( 4274.609375 4900 325.91804239 ) ( 4274.609375 4900 1000 ) ( 4274.609375 5000 315.894266363 ) ( 4274.609375 5000 1000 ) ( 4332.8125 4000 303.401092268 ) ( 4332.8125 4100 301.181085098 ) ( 4332.8125 4000 1000 ) ( 4332.8125 4100 1000 ) ( 4332.8125 4200 307.634160054 ) ( 4332.8125 4200 1000 ) ( 4332.8125 4274.609375 312.678329889 ) ( 4332.8125 4274.609375 1000 ) ( 4332.8125 4332.8125 329.992101164 ) ( 4332.8125 4332.8125 1000 ) ( 4332.8125 4371.09375 341.551782167 ) ( 4332.8125 4371.09375 1000 ) ( 4332.8125 4400 348.8663864 ) ( 4332.8125 4400 1000 ) ( 4332.8125 4425 356.299028366 ) ( 4332.8125 4425 1000 ) ( 4332.8125 4450 362.947830268 ) ( 4332.8125 4450 1000 ) ( 4332.8125 4475 368.149109646 ) ( 4332.8125 4475 1000 ) ( 4332.8125 4500 371.348036894 ) ( 4332.8125 4500 1000 ) ( 4332.8125 4525 370.738340956 ) ( 4332.8125 4525 1000 ) ( 4332.8125 4550 368.746108219 ) ( 4332.8125 4550 1000 ) ( 4332.8125 4575 365.759231422 ) ( 4332.8125 4575 1000 ) ( 4332.8125 4600 362.167402557 ) ( 4332.8125 4600 1000 ) ( 4332.8125 4628.90625 357.921613598 ) ( 4332.8125 4628.90625 1000 ) ( 4332.8125 4667.1875 352.607158863 ) ( 4332.8125 4667.1875 1000 ) ( 4332.8125 4725.390625 348.410544339 ) ( 4332.8125 4725.390625 1000 ) ( 4332.8125 4800 345.688501904 ) ( 4332.8125 4800 1000 ) ( 4332.8125 4900 331.700487917 ) ( 4332.8125 4900 1000 ) ( 4332.8125 5000 319.744211467 ) ( 4332.8125 5000 1000 ) ( 4371.09375 4000 301.226006919 ) ( 4371.09375 4100 309.192102015 ) ( 4371.09375 4000 1000 ) ( 4371.09375 4100 1000 ) ( 4371.09375 4200 324.526039993 ) ( 4371.09375 4200 1000 ) ( 4371.09375 4274.609375 317.580525578 ) ( 4371.09375 4274.609375 1000 ) ( 4371.09375 4332.8125 333.625554389 ) ( 4371.09375 4332.8125 1000 ) ( 4371.09375 4371.09375 346.349044255 ) ( 4371.09375 4371.09375 1000 ) ( 4371.09375 4400 354.106452561 ) ( 4371.09375 4400 1000 ) ( 4371.09375 4425 361.032586347 ) ( 4371.09375 4425 1000 ) ( 4371.09375 4450 367.344301265 ) ( 4371.09375 4450 1000 ) ( 4371.09375 4475 372.092190205 ) ( 4371.09375 4475 1000 ) ( 4371.09375 4500 374.833943356 ) ( 4371.09375 4500 1000 ) ( 4371.09375 4525 373.898957221 ) ( 4371.09375 4525 1000 ) ( 4371.09375 4550 371.436837619 ) ( 4371.09375 4550 1000 ) ( 4371.09375 4575 368.287278916 ) ( 4371.09375 4575 1000 ) ( 4371.09375 4600 364.853894082 ) ( 4371.09375 4600 1000 ) ( 4371.09375 4628.90625 362.167794295 ) ( 4371.09375 4628.90625 1000 ) ( 4371.09375 4667.1875 359.619997537 ) ( 4371.09375 4667.1875 1000 ) ( 4371.09375 4725.390625 356.98884675 ) ( 4371.09375 4725.390625 1000 ) ( 4371.09375 4800 348.851458421 ) ( 4371.09375 4800 1000 ) ( 4371.09375 4900 333.338747495 ) ( 4371.09375 4900 1000 ) ( 4371.09375 5000 319.589918804 ) ( 4371.09375 5000 1000 ) ( 4400 4000 301.514434814 ) ( 4400 4100 311.825836182 ) ( 4400 4000 1000 ) ( 4400 4100 1000 ) ( 4400 4200 335.233673096 ) ( 4400 4200 1000 ) ( 4400 4274.609375 323.944752241 ) ( 4400 4274.609375 1000 ) ( 4400 4332.8125 339.171133428 ) ( 4400 4332.8125 1000 ) ( 4400 4371.09375 351.401745029 ) ( 4400 4371.09375 1000 ) ( 4400 4400 358.045043945 ) ( 4400 4400 1000 ) ( 4400 4425 364.162403091 ) ( 4400 4425 1000 ) ( 4400 4450 369.751742615 ) ( 4400 4450 1000 ) ( 4400 4475 373.778788171 ) ( 4400 4475 1000 ) ( 4400 4500 375.407562256 ) ( 4400 4500 1000 ) ( 4400 4525 374.879423755 ) ( 4400 4525 1000 ) ( 4400 4550 372.744121541 ) ( 4400 4550 1000 ) ( 4400 4575 369.982422524 ) ( 4400 4575 1000 ) ( 4400 4600 367.611968994 ) ( 4400 4600 1000 ) ( 4400 4628.90625 365.126856957 ) ( 4400 4628.90625 1000 ) ( 4400 4667.1875 363.331218702 ) ( 4400 4667.1875 1000 ) ( 4400 4725.390625 361.216799192 ) ( 4400 4725.390625 1000 ) ( 4400 4800 350.18182373 ) ( 4400 4800 1000 ) ( 4400 4900 333.645874023 ) ( 4400 4900 1000 ) ( 4400 5000 317.78918457 ) ( 4400 5000 1000 ) ( 4425 4000 303.172512177 ) ( 4425 4100 315.962166623 ) ( 4425 4000 1000 ) ( 4425 4100 1000 ) ( 4425 4200 340.108574524 ) ( 4425 4200 1000 ) ( 4425 4274.609375 329.964365639 ) ( 4425 4274.609375 1000 ) ( 4425 4332.8125 341.360282224 ) ( 4425 4332.8125 1000 ) ( 4425 4371.09375 352.928062556 ) ( 4425 4371.09375 1000 ) ( 4425 4400 360.109706486 ) ( 4425 4400 1000 ) ( 4425 4425 365.608432094 ) ( 4425 4425 1000 ) ( 4425 4450 370.951582978 ) ( 4425 4450 1000 ) ( 4425 4475 374.98143712 ) ( 4425 4475 1000 ) ( 4425 4500 376.810127622 ) ( 4425 4500 1000 ) ( 4425 4525 376.906667529 ) ( 4425 4525 1000 ) ( 4425 4550 375.404109092 ) ( 4425 4550 1000 ) ( 4425 4575 373.003512699 ) ( 4425 4575 1000 ) ( 4425 4600 370.710046384 ) ( 4425 4600 1000 ) ( 4425 4628.90625 368.412857347 ) ( 4425 4628.90625 1000 ) ( 4425 4667.1875 365.835851875 ) ( 4425 4667.1875 1000 ) ( 4425 4725.390625 361.431767193 ) ( 4425 4725.390625 1000 ) ( 4425 4800 349.638627526 ) ( 4425 4800 1000 ) ( 4425 4900 333.420881529 ) ( 4425 4900 1000 ) ( 4425 5000 314.68207904 ) ( 4425 5000 1000 ) ( 4450 4000 305.10845611 ) ( 4450 4100 319.094899288 ) ( 4450 4000 1000 ) ( 4450 4100 1000 ) ( 4450 4200 344.865780734 ) ( 4450 4200 1000 ) ( 4450 4274.609375 337.387399157 ) ( 4450 4274.609375 1000 ) ( 4450 4332.8125 344.497529742 ) ( 4450 4332.8125 1000 ) ( 4450 4371.09375 354.432728964 ) ( 4450 4371.09375 1000 ) ( 4450 4400 361.627386558 ) ( 4450 4400 1000 ) ( 4450 4425 366.528335156 ) ( 4450 4425 1000 ) ( 4450 4450 371.247774259 ) ( 4450 4450 1000 ) ( 4450 4475 375.179897053 ) ( 4450 4475 1000 ) ( 4450 4500 377.12218334 ) ( 4450 4500 1000 ) ( 4450 4525 377.645472652 ) ( 4450 4525 1000 ) ( 4450 4550 376.987741756 ) ( 4450 4550 1000 ) ( 4450 4575 374.947530059 ) ( 4450 4575 1000 ) ( 4450 4600 372.732927034 ) ( 4450 4600 1000 ) ( 4450 4628.90625 370.040589385 ) ( 4450 4628.90625 1000 ) ( 4450 4667.1875 366.158096441 ) ( 4450 4667.1875 1000 ) ( 4450 4725.390625 360.102288276 ) ( 4450 4725.390625 1000 ) ( 4450 4800 348.266856583 ) ( 4450 4800 1000 ) ( 4450 4900 333.062216752 ) ( 4450 4900 1000 ) ( 4450 5000 313.578485265 ) ( 4450 5000 1000 ) ( 4475 4000 307.084499437 ) ( 4475 4100 320.72639731 ) ( 4475 4000 1000 ) ( 4475 4100 1000 ) ( 4475 4200 348.391726741 ) ( 4475 4200 1000 ) ( 4475 4274.609375 345.658266371 ) ( 4475 4274.609375 1000 ) ( 4475 4332.8125 348.279087863 ) ( 4475 4332.8125 1000 ) ( 4475 4371.09375 355.925825916 ) ( 4475 4371.09375 1000 ) ( 4475 4400 362.687882109 ) ( 4475 4400 1000 ) ( 4475 4425 366.928121622 ) ( 4475 4425 1000 ) ( 4475 4450 371.074669228 ) ( 4475 4450 1000 ) ( 4475 4475 374.544376796 ) ( 4475 4475 1000 ) ( 4475 4500 376.51002988 ) ( 4475 4500 1000 ) ( 4475 4525 377.408374924 ) ( 4475 4525 1000 ) ( 4475 4550 377.234511609 ) ( 4475 4550 1000 ) ( 4475 4575 375.825209595 ) ( 4475 4575 1000 ) ( 4475 4600 373.693166002 ) ( 4475 4600 1000 ) ( 4475 4628.90625 370.506573555 ) ( 4475 4628.90625 1000 ) ( 4475 4667.1875 364.915607412 ) ( 4475 4667.1875 1000 ) ( 4475 4725.390625 357.054663696 ) ( 4475 4725.390625 1000 ) ( 4475 4800 346.335643934 ) ( 4475 4800 1000 ) ( 4475 4900 332.442331831 ) ( 4475 4900 1000 ) ( 4475 5000 313.208152224 ) ( 4475 5000 1000 ) ( 4500 4000 308.862243652 ) ( 4500 4100 320.391998291 ) ( 4500 4000 1000 ) ( 4500 4100 1000 ) ( 4500 4200 349.717681885 ) ( 4500 4200 1000 ) ( 4500 4274.609375 353.875406438 ) ( 4500 4274.609375 1000 ) ( 4500 4332.8125 352.33757619 ) ( 4500 4332.8125 1000 ) ( 4500 4371.09375 357.504332923 ) ( 4500 4371.09375 1000 ) ( 4500 4400 363.378234863 ) ( 4500 4400 1000 ) ( 4500 4425 366.896079682 ) ( 4500 4425 1000 ) ( 4500 4450 370.404314912 ) ( 4500 4450 1000 ) ( 4500 4475 373.330469433 ) ( 4500 4475 1000 ) ( 4500 4500 375.134429932 ) ( 4500 4500 1000 ) ( 4500 4525 376.360417164 ) ( 4500 4525 1000 ) ( 4500 4550 376.617371306 ) ( 4500 4550 1000 ) ( 4500 4575 375.751239376 ) ( 4500 4575 1000 ) ( 4500 4600 373.594665527 ) ( 4500 4600 1000 ) ( 4500 4628.90625 369.94699037 ) ( 4500 4628.90625 1000 ) ( 4500 4667.1875 362.726499139 ) ( 4500 4667.1875 1000 ) ( 4500 4725.390625 353.176634213 ) ( 4500 4725.390625 1000 ) ( 4500 4800 344.121246338 ) ( 4500 4800 1000 ) ( 4500 4900 331.432800293 ) ( 4500 4900 1000 ) ( 4500 5000 312.365203857 ) ( 4500 5000 1000 ) ( 4525 4000 310.104262514 ) ( 4525 4100 328.093801418 ) ( 4525 4000 1000 ) ( 4525 4100 1000 ) ( 4525 4200 351.451586107 ) ( 4525 4200 1000 ) ( 4525 4274.609375 357.27390715 ) ( 4525 4274.609375 1000 ) ( 4525 4332.8125 355.803322217 ) ( 4525 4332.8125 1000 ) ( 4525 4371.09375 358.745933632 ) ( 4525 4371.09375 1000 ) ( 4525 4400 362.690046332 ) ( 4525 4400 1000 ) ( 4525 4425 365.140001259 ) ( 4525 4425 1000 ) ( 4525 4450 368.094354246 ) ( 4525 4450 1000 ) ( 4525 4475 370.758652352 ) ( 4525 4475 1000 ) ( 4525 4500 372.574819339 ) ( 4525 4500 1000 ) ( 4525 4525 373.9375357 ) ( 4525 4525 1000 ) ( 4525 4550 374.156721218 ) ( 4525 4550 1000 ) ( 4525 4575 373.317289926 ) ( 4525 4575 1000 ) ( 4525 4600 371.251643711 ) ( 4525 4600 1000 ) ( 4525 4628.90625 367.129067947 ) ( 4525 4628.90625 1000 ) ( 4525 4667.1875 359.896951349 ) ( 4525 4667.1875 1000 ) ( 4525 4725.390625 350.439896874 ) ( 4525 4725.390625 1000 ) ( 4525 4800 341.738003726 ) ( 4525 4800 1000 ) ( 4525 4900 328.517281071 ) ( 4525 4900 1000 ) ( 4525 5000 310.176469202 ) ( 4525 5000 1000 ) ( 4550 4000 311.709466551 ) ( 4550 4100 332.139501106 ) ( 4550 4000 1000 ) ( 4550 4100 1000 ) ( 4550 4200 352.899002749 ) ( 4550 4200 1000 ) ( 4550 4274.609375 358.660918216 ) ( 4550 4274.609375 1000 ) ( 4550 4332.8125 357.700121103 ) ( 4550 4332.8125 1000 ) ( 4550 4371.09375 359.372116757 ) ( 4550 4371.09375 1000 ) ( 4550 4400 361.975880299 ) ( 4550 4400 1000 ) ( 4550 4425 363.536122452 ) ( 4550 4425 1000 ) ( 4550 4450 365.408093237 ) ( 4550 4450 1000 ) ( 4550 4475 367.713518779 ) ( 4550 4475 1000 ) ( 4550 4500 369.453474526 ) ( 4550 4500 1000 ) ( 4550 4525 370.878158171 ) ( 4550 4525 1000 ) ( 4550 4550 371.076520568 ) ( 4550 4550 1000 ) ( 4550 4575 370.249397755 ) ( 4550 4575 1000 ) ( 4550 4600 368.261311181 ) ( 4550 4600 1000 ) ( 4550 4628.90625 363.95747463 ) ( 4550 4628.90625 1000 ) ( 4550 4667.1875 356.844156949 ) ( 4550 4667.1875 1000 ) ( 4550 4725.390625 347.507984702 ) ( 4550 4725.390625 1000 ) ( 4550 4800 339.068686067 ) ( 4550 4800 1000 ) ( 4550 4900 324.914832308 ) ( 4550 4900 1000 ) ( 4550 5000 307.154255678 ) ( 4550 5000 1000 ) ( 4575 4000 313.22457087 ) ( 4575 4100 332.859049164 ) ( 4575 4000 1000 ) ( 4575 4100 1000 ) ( 4575 4200 353.451853196 ) ( 4575 4200 1000 ) ( 4575 4274.609375 359.094832274 ) ( 4575 4274.609375 1000 ) ( 4575 4332.8125 358.532233226 ) ( 4575 4332.8125 1000 ) ( 4575 4371.09375 359.147930947 ) ( 4575 4371.09375 1000 ) ( 4575 4400 360.743033433 ) ( 4575 4400 1000 ) ( 4575 4425 361.609675399 ) ( 4575 4425 1000 ) ( 4575 4450 362.867856831 ) ( 4575 4450 1000 ) ( 4575 4475 364.559553489 ) ( 4575 4475 1000 ) ( 4575 4500 366.131620121 ) ( 4575 4500 1000 ) ( 4575 4525 367.437177885 ) ( 4575 4525 1000 ) ( 4575 4550 367.453798871 ) ( 4575 4550 1000 ) ( 4575 4575 366.411263893 ) ( 4575 4575 1000 ) ( 4575 4600 364.487920502 ) ( 4575 4600 1000 ) ( 4575 4628.90625 360.201044325 ) ( 4575 4628.90625 1000 ) ( 4575 4667.1875 353.533304304 ) ( 4575 4667.1875 1000 ) ( 4575 4725.390625 344.524053831 ) ( 4575 4725.390625 1000 ) ( 4575 4800 336.13405025 ) ( 4575 4800 1000 ) ( 4575 4900 320.917256786 ) ( 4575 4900 1000 ) ( 4575 5000 303.531888448 ) ( 4575 5000 1000 ) ( 4600 4000 314.198120117 ) ( 4600 4100 330.294952393 ) ( 4600 4000 1000 ) ( 4600 4100 1000 ) ( 4600 4200 352.507537842 ) ( 4600 4200 1000 ) ( 4600 4274.609375 358.456155199 ) ( 4600 4274.609375 1000 ) ( 4600 4332.8125 358.854711046 ) ( 4600 4332.8125 1000 ) ( 4600 4371.09375 358.414201978 ) ( 4600 4371.09375 1000 ) ( 4600 4400 358.484039307 ) ( 4600 4400 1000 ) ( 4600 4425 358.857210484 ) ( 4600 4425 1000 ) ( 4600 4450 359.701802784 ) ( 4600 4450 1000 ) ( 4600 4475 361.060639839 ) ( 4600 4475 1000 ) ( 4600 4500 362.97845459 ) ( 4600 4500 1000 ) ( 4600 4525 363.983385865 ) ( 4600 4525 1000 ) ( 4600 4550 363.633501645 ) ( 4600 4550 1000 ) ( 4600 4575 362.156880398 ) ( 4600 4575 1000 ) ( 4600 4600 359.778564453 ) ( 4600 4600 1000 ) ( 4600 4628.90625 355.741654755 ) ( 4600 4628.90625 1000 ) ( 4600 4667.1875 349.902997403 ) ( 4600 4667.1875 1000 ) ( 4600 4725.390625 341.49733671 ) ( 4600 4725.390625 1000 ) ( 4600 4800 332.955352783 ) ( 4600 4800 1000 ) ( 4600 4900 316.831726074 ) ( 4600 4900 1000 ) ( 4600 5000 299.558624268 ) ( 4600 5000 1000 ) ( 4628.90625 4000 318.342077606 ) ( 4628.90625 4100 331.214513811 ) ( 4628.90625 4000 1000 ) ( 4628.90625 4100 1000 ) ( 4628.90625 4200 351.014529156 ) ( 4628.90625 4200 1000 ) ( 4628.90625 4274.609375 358.650270669 ) ( 4628.90625 4274.609375 1000 ) ( 4628.90625 4332.8125 358.176588757 ) ( 4628.90625 4332.8125 1000 ) ( 4628.90625 4371.09375 356.254791107 ) ( 4628.90625 4371.09375 1000 ) ( 4628.90625 4400 354.908320459 ) ( 4628.90625 4400 1000 ) ( 4628.90625 4425 355.423712106 ) ( 4628.90625 4425 1000 ) ( 4628.90625 4450 356.573772172 ) ( 4628.90625 4450 1000 ) ( 4628.90625 4475 358.1268653 ) ( 4628.90625 4475 1000 ) ( 4628.90625 4500 360.012066732 ) ( 4628.90625 4500 1000 ) ( 4628.90625 4525 360.555853867 ) ( 4628.90625 4525 1000 ) ( 4628.90625 4550 360.046460961 ) ( 4628.90625 4550 1000 ) ( 4628.90625 4575 358.485540237 ) ( 4628.90625 4575 1000 ) ( 4628.90625 4600 356.061963886 ) ( 4628.90625 4600 1000 ) ( 4628.90625 4628.90625 352.10656441 ) ( 4628.90625 4628.90625 1000 ) ( 4628.90625 4667.1875 346.167107783 ) ( 4628.90625 4667.1875 1000 ) ( 4628.90625 4725.390625 337.778992854 ) ( 4628.90625 4725.390625 1000 ) ( 4628.90625 4800 329.354740452 ) ( 4628.90625 4800 1000 ) ( 4628.90625 4900 313.229361882 ) ( 4628.90625 4900 1000 ) ( 4628.90625 5000 296.410555631 ) ( 4628.90625 5000 1000 ) ( 4667.1875 4000 325.784010412 ) ( 4667.1875 4100 342.446901294 ) ( 4667.1875 4000 1000 ) ( 4667.1875 4100 1000 ) ( 4667.1875 4200 358.267023985 ) ( 4667.1875 4200 1000 ) ( 4667.1875 4274.609375 361.337717433 ) ( 4667.1875 4274.609375 1000 ) ( 4667.1875 4332.8125 357.549044612 ) ( 4667.1875 4332.8125 1000 ) ( 4667.1875 4371.09375 353.73525597 ) ( 4667.1875 4371.09375 1000 ) ( 4667.1875 4400 350.509427596 ) ( 4667.1875 4400 1000 ) ( 4667.1875 4425 350.758834705 ) ( 4667.1875 4425 1000 ) ( 4667.1875 4450 351.861783123 ) ( 4667.1875 4450 1000 ) ( 4667.1875 4475 353.354851087 ) ( 4667.1875 4475 1000 ) ( 4667.1875 4500 354.789523731 ) ( 4667.1875 4500 1000 ) ( 4667.1875 4525 355.009898462 ) ( 4667.1875 4525 1000 ) ( 4667.1875 4550 354.31241666 ) ( 4667.1875 4550 1000 ) ( 4667.1875 4575 352.759569814 ) ( 4667.1875 4575 1000 ) ( 4667.1875 4600 350.412737919 ) ( 4667.1875 4600 1000 ) ( 4667.1875 4628.90625 346.496735519 ) ( 4667.1875 4628.90625 1000 ) ( 4667.1875 4667.1875 340.396555812 ) ( 4667.1875 4667.1875 1000 ) ( 4667.1875 4725.390625 331.933552433 ) ( 4667.1875 4725.390625 1000 ) ( 4667.1875 4800 323.838636356 ) ( 4667.1875 4800 1000 ) ( 4667.1875 4900 309.571320928 ) ( 4667.1875 4900 1000 ) ( 4667.1875 5000 293.104610705 ) ( 4667.1875 5000 1000 ) ( 4725.390625 4000 339.70830957 ) ( 4725.390625 4100 361.334961764 ) ( 4725.390625 4000 1000 ) ( 4725.390625 4100 1000 ) ( 4725.390625 4200 371.454343255 ) ( 4725.390625 4200 1000 ) ( 4725.390625 4274.609375 366.407357184 ) ( 4725.390625 4274.609375 1000 ) ( 4725.390625 4332.8125 357.606427617 ) ( 4725.390625 4332.8125 1000 ) ( 4725.390625 4371.09375 350.404521684 ) ( 4725.390625 4371.09375 1000 ) ( 4725.390625 4400 344.477652084 ) ( 4725.390625 4400 1000 ) ( 4725.390625 4425 342.5954134 ) ( 4725.390625 4425 1000 ) ( 4725.390625 4450 341.832559975 ) ( 4725.390625 4450 1000 ) ( 4725.390625 4475 342.020519435 ) ( 4725.390625 4475 1000 ) ( 4725.390625 4500 342.468133337 ) ( 4725.390625 4500 1000 ) ( 4725.390625 4525 342.781377064 ) ( 4725.390625 4525 1000 ) ( 4725.390625 4550 342.154373306 ) ( 4725.390625 4550 1000 ) ( 4725.390625 4575 340.736151889 ) ( 4725.390625 4575 1000 ) ( 4725.390625 4600 338.505823348 ) ( 4725.390625 4600 1000 ) ( 4725.390625 4628.90625 335.453839744 ) ( 4725.390625 4628.90625 1000 ) ( 4725.390625 4667.1875 330.250420001 ) ( 4725.390625 4667.1875 1000 ) ( 4725.390625 4725.390625 322.18847146 ) ( 4725.390625 4725.390625 1000 ) ( 4725.390625 4800 314.993343282 ) ( 4725.390625 4800 1000 ) ( 4725.390625 4900 304.476627952 ) ( 4725.390625 4900 1000 ) ( 4725.390625 5000 293.755754458 ) ( 4725.390625 5000 1000 ) ( 4800 4000 363.130523682 ) ( 4800 4100 381.424926758 ) ( 4800 4000 1000 ) ( 4800 4100 1000 ) ( 4800 4200 382.50201416 ) ( 4800 4200 1000 ) ( 4800 4274.609375 370.777397515 ) ( 4800 4274.609375 1000 ) ( 4800 4332.8125 361.172688287 ) ( 4800 4332.8125 1000 ) ( 4800 4371.09375 353.111289697 ) ( 4800 4371.09375 1000 ) ( 4800 4400 347.394287109 ) ( 4800 4400 1000 ) ( 4800 4425 340.343074843 ) ( 4800 4425 1000 ) ( 4800 4450 332.701080554 ) ( 4800 4450 1000 ) ( 4800 4475 326.672835422 ) ( 4800 4475 1000 ) ( 4800 4500 323.927246094 ) ( 4800 4500 1000 ) ( 4800 4525 325.934982477 ) ( 4800 4525 1000 ) ( 4800 4550 326.965388175 ) ( 4800 4550 1000 ) ( 4800 4575 326.932499631 ) ( 4800 4575 1000 ) ( 4800 4600 325.74331665 ) ( 4800 4600 1000 ) ( 4800 4628.90625 323.597803917 ) ( 4800 4628.90625 1000 ) ( 4800 4667.1875 319.898521755 ) ( 4800 4667.1875 1000 ) ( 4800 4725.390625 311.62287237 ) ( 4800 4725.390625 1000 ) ( 4800 4800 305.510803223 ) ( 4800 4800 1000 ) ( 4800 4900 301.91104126 ) ( 4800 4900 1000 ) ( 4800 5000 299.329498291 ) ( 4800 5000 1000 ) ( 4900 4000 391.682128906 ) ( 4900 4100 390.216033936 ) ( 4900 4000 1000 ) ( 4900 4100 1000 ) ( 4900 4200 380.0262146 ) ( 4900 4200 1000 ) ( 4900 4274.609375 365.205467143 ) ( 4900 4274.609375 1000 ) ( 4900 4332.8125 352.498401389 ) ( 4900 4332.8125 1000 ) ( 4900 4371.09375 345.741676128 ) ( 4900 4371.09375 1000 ) ( 4900 4400 341.750457764 ) ( 4900 4400 1000 ) ( 4900 4425 335.823626216 ) ( 4900 4425 1000 ) ( 4900 4450 329.775032395 ) ( 4900 4450 1000 ) ( 4900 4475 323.869238518 ) ( 4900 4475 1000 ) ( 4900 4500 318.363098145 ) ( 4900 4500 1000 ) ( 4900 4525 312.775182686 ) ( 4900 4525 1000 ) ( 4900 4550 310.216751871 ) ( 4900 4550 1000 ) ( 4900 4575 310.034978259 ) ( 4900 4575 1000 ) ( 4900 4600 311.761352539 ) ( 4900 4600 1000 ) ( 4900 4628.90625 309.244713706 ) ( 4900 4628.90625 1000 ) ( 4900 4667.1875 304.97575885 ) ( 4900 4667.1875 1000 ) ( 4900 4725.390625 300.608926462 ) ( 4900 4725.390625 1000 ) ( 4900 4800 297.240661621 ) ( 4900 4800 1000 ) ( 4900 4900 294.444122314 ) ( 4900 4900 1000 ) ( 4900 5000 289.977752686 ) ( 4900 5000 1000 ) ( 5000 4000 389.778045654 ) ( 5000 4100 374.760192871 ) ( 5000 4000 1000 ) ( 5000 4100 1000 ) ( 5000 4200 358.084899902 ) ( 5000 4200 1000 ) ( 5000 4274.609375 345.927153317 ) ( 5000 4274.609375 1000 ) ( 5000 4332.8125 337.009731008 ) ( 5000 4332.8125 1000 ) ( 5000 4371.09375 331.284822431 ) ( 5000 4371.09375 1000 ) ( 5000 4400 327.038543701 ) ( 5000 4400 1000 ) ( 5000 4425 323.357912226 ) ( 5000 4425 1000 ) ( 5000 4450 319.890168391 ) ( 5000 4450 1000 ) ( 5000 4475 316.648657441 ) ( 5000 4475 1000 ) ( 5000 4500 313.646392822 ) ( 5000 4500 1000 ) ( 5000 4525 310.498987214 ) ( 5000 4525 1000 ) ( 5000 4550 306.726446938 ) ( 5000 4550 1000 ) ( 5000 4575 302.883329146 ) ( 5000 4575 1000 ) ( 5000 4600 299.529052734 ) ( 5000 4600 1000 ) ( 5000 4628.90625 298.200426442 ) ( 5000 4628.90625 1000 ) ( 5000 4667.1875 297.136889836 ) ( 5000 4667.1875 1000 ) ( 5000 4725.390625 293.587564391 ) ( 5000 4725.390625 1000 ) ( 5000 4800 290.733978271 ) ( 5000 4800 1000 ) ( 5000 4900 287.757965088 ) ( 5000 4900 1000 ) ( 5000 5000 282.857543945 ) ( 5000 5000 1000 ) );
