/*--------------------------------*- C++ -*----------------------------------*\
| =========                 |                                                 |
| \\      /  F ield         | OpenFOAM: The Open Source CFD Toolbox           |
|  \\    /   O peration     | Version:  2.1.1                                 |
|   \\  /    A nd           | Web:      www.OpenFOAM.org                      |
|    \\/     M anipulation  |                                                 |
\*---------------------------------------------------------------------------*/
FoamFile
{
    version     2.0;
    format      ascii;
    class       dictionary;
    location    "constant/polyMesh";
    object      blockMeshDict;
}
// * * * * * * * * * * * * * * * * * * * * * * * * * * * * * * * * * * * * * //

vertices        882 ( ( 4000 4000 266.741729736 ) ( 4050 4000 266.081322341 ) ( 4050 4050 273.707214004 ) ( 4000 4050 285.854039773 ) ( 4000 4000 600 ) ( 4050 4000 600 ) ( 4050 4050 600 ) ( 4000 4050 600 ) ( 4050 4100 279.028241073 ) ( 4000 4100 299.824066162 ) ( 4050 4100 600 ) ( 4000 4100 600 ) ( 4050 4150 292.209215023 ) ( 4000 4150 304.838026526 ) ( 4050 4150 600 ) ( 4000 4150 600 ) ( 4050 4200 305.271430252 ) ( 4000 4200 305.362304688 ) ( 4050 4200 600 ) ( 4000 4200 600 ) ( 4050 4250 311.424163314 ) ( 4000 4250 305.209197986 ) ( 4050 4250 600 ) ( 4000 4250 600 ) ( 4050 4300 314.217010807 ) ( 4000 4300 308.038391113 ) ( 4050 4300 600 ) ( 4000 4300 600 ) ( 4050 4350 321.762681083 ) ( 4000 4350 319.889531221 ) ( 4050 4350 600 ) ( 4000 4350 600 ) ( 4050 4400 329.92215676 ) ( 4000 4400 329.306274414 ) ( 4050 4400 600 ) ( 4000 4400 600 ) ( 4050 4450 337.504492285 ) ( 4000 4450 328.124433052 ) ( 4050 4450 600 ) ( 4000 4450 600 ) ( 4050 4500 340.965095633 ) ( 4000 4500 323.610229492 ) ( 4050 4500 600 ) ( 4000 4500 600 ) ( 4050 4550 341.101541236 ) ( 4000 4550 321.889269693 ) ( 4050 4550 600 ) ( 4000 4550 600 ) ( 4050 4600 340.994008839 ) ( 4000 4600 323.766693115 ) ( 4050 4600 600 ) ( 4000 4600 600 ) ( 4050 4650 344.03991198 ) ( 4000 4650 335.604921406 ) ( 4050 4650 600 ) ( 4000 4650 600 ) ( 4050 4700 347.5392586 ) ( 4000 4700 346.060211182 ) ( 4050 4700 600 ) ( 4000 4700 600 ) ( 4050 4750 344.896430609 ) ( 4000 4750 346.727478557 ) ( 4050 4750 600 ) ( 4000 4750 600 ) ( 4050 4800 340.965988108 ) ( 4000 4800 345.024993896 ) ( 4050 4800 600 ) ( 4000 4800 600 ) ( 4050 4850 338.400618977 ) ( 4000 4850 343.589581596 ) ( 4050 4850 600 ) ( 4000 4850 600 ) ( 4050 4900 334.035462483 ) ( 4000 4900 338.507446289 ) ( 4050 4900 600 ) ( 4000 4900 600 ) ( 4050 4950 328.400792241 ) ( 4000 4950 331.585317784 ) ( 4050 4950 600 ) ( 4000 4950 600 ) ( 4050 5000 322.997616713 ) ( 4000 5000 325.186523438 ) ( 4050 5000 600 ) ( 4000 5000 600 ) ( 4100 4000 274.000061035 ) ( 4100 4050 276.292263364 ) ( 4100 4000 600 ) ( 4100 4050 600 ) ( 4100 4100 273.755340576 ) ( 4100 4100 600 ) ( 4100 4150 283.462917546 ) ( 4100 4150 600 ) ( 4100 4200 303.146972656 ) ( 4100 4200 600 ) ( 4100 4250 315.749545255 ) ( 4100 4250 600 ) ( 4100 4300 321.173614502 ) ( 4100 4300 600 ) ( 4100 4350 326.074491652 ) ( 4100 4350 600 ) ( 4100 4400 332.712493896 ) ( 4100 4400 600 ) ( 4100 4450 342.555486119 ) ( 4100 4450 600 ) ( 4100 4500 350.405944824 ) ( 4100 4500 600 ) ( 4100 4550 352.818886672 ) ( 4100 4550 600 ) ( 4100 4600 352.224517822 ) ( 4100 4600 600 ) ( 4100 4650 350.620519585 ) ( 4100 4650 600 ) ( 4100 4700 348.304656982 ) ( 4100 4700 600 ) ( 4100 4750 342.71573411 ) ( 4100 4750 600 ) ( 4100 4800 335.885223389 ) ( 4100 4800 600 ) ( 4100 4850 331.78615664 ) ( 4100 4850 600 ) ( 4100 4900 328.177642822 ) ( 4100 4900 600 ) ( 4100 4950 323.108229818 ) ( 4100 4950 600 ) ( 4100 5000 318.579681396 ) ( 4100 5000 600 ) ( 4150 4000 285.083661336 ) ( 4150 4050 284.440909412 ) ( 4150 4000 600 ) ( 4150 4050 600 ) ( 4150 4100 278.440526421 ) ( 4150 4100 600 ) ( 4150 4150 284.606355548 ) ( 4150 4150 600 ) ( 4150 4200 301.308377896 ) ( 4150 4200 600 ) ( 4150 4250 317.691848296 ) ( 4150 4250 600 ) ( 4150 4300 328.815496798 ) ( 4150 4300 600 ) ( 4150 4350 335.751968399 ) ( 4150 4350 600 ) ( 4150 4400 342.302277658 ) ( 4150 4400 600 ) ( 4150 4450 350.040830177 ) ( 4150 4450 600 ) ( 4150 4500 355.777125394 ) ( 4150 4500 600 ) ( 4150 4550 357.045898887 ) ( 4150 4550 600 ) ( 4150 4600 355.558062821 ) ( 4150 4600 600 ) ( 4150 4650 350.627139402 ) ( 4150 4650 600 ) ( 4150 4700 345.469713266 ) ( 4150 4700 600 ) ( 4150 4750 339.426275153 ) ( 4150 4750 600 ) ( 4150 4800 333.09976556 ) ( 4150 4800 600 ) ( 4150 4850 324.590601122 ) ( 4150 4850 600 ) ( 4150 4900 317.949312304 ) ( 4150 4900 600 ) ( 4150 4950 312.912120246 ) ( 4150 4950 600 ) ( 4150 5000 308.492247325 ) ( 4150 5000 600 ) ( 4200 4000 293.638916016 ) ( 4200 4050 291.607000811 ) ( 4200 4000 600 ) ( 4200 4050 600 ) ( 4200 4100 282.636260986 ) ( 4200 4100 600 ) ( 4200 4150 286.145928755 ) ( 4200 4150 600 ) ( 4200 4200 300.482788086 ) ( 4200 4200 600 ) ( 4200 4250 317.770878085 ) ( 4200 4250 600 ) ( 4200 4300 332.508911133 ) ( 4200 4300 600 ) ( 4200 4350 343.406110565 ) ( 4200 4350 600 ) ( 4200 4400 353.077758789 ) ( 4200 4400 600 ) ( 4200 4450 359.673297032 ) ( 4200 4450 600 ) ( 4200 4500 363.266967773 ) ( 4200 4500 600 ) ( 4200 4550 362.224779826 ) ( 4200 4550 600 ) ( 4200 4600 357.260925293 ) ( 4200 4600 600 ) ( 4200 4650 350.356991308 ) ( 4200 4650 600 ) ( 4200 4700 342.228149414 ) ( 4200 4700 600 ) ( 4200 4750 334.377201721 ) ( 4200 4750 600 ) ( 4200 4800 326.716430664 ) ( 4200 4800 600 ) ( 4200 4850 319.541832727 ) ( 4200 4850 600 ) ( 4200 4900 313.923156738 ) ( 4200 4900 600 ) ( 4200 4950 309.817121805 ) ( 4200 4950 600 ) ( 4200 5000 306.332885742 ) ( 4200 5000 600 ) ( 4250 4000 299.970265337 ) ( 4250 4050 291.832835726 ) ( 4250 4000 600 ) ( 4250 4050 600 ) ( 4250 4100 285.740804405 ) ( 4250 4100 600 ) ( 4250 4150 291.382798758 ) ( 4250 4150 600 ) ( 4250 4200 300.553494632 ) ( 4250 4200 600 ) ( 4250 4250 313.724362885 ) ( 4250 4250 600 ) ( 4250 4300 329.489501606 ) ( 4250 4300 600 ) ( 4250 4350 345.577859434 ) ( 4250 4350 600 ) ( 4250 4400 359.351469604 ) ( 4250 4400 600 ) ( 4250 4450 366.427482031 ) ( 4250 4450 600 ) ( 4250 4500 368.997743719 ) ( 4250 4500 600 ) ( 4250 4550 366.065108395 ) ( 4250 4550 600 ) ( 4250 4600 358.812430874 ) ( 4250 4600 600 ) ( 4250 4650 350.245771031 ) ( 4250 4650 600 ) ( 4250 4700 341.211101773 ) ( 4250 4700 600 ) ( 4250 4750 337.714836027 ) ( 4250 4750 600 ) ( 4250 4800 332.430591261 ) ( 4250 4800 600 ) ( 4250 4850 327.325515958 ) ( 4250 4850 600 ) ( 4250 4900 322.671549608 ) ( 4250 4900 600 ) ( 4250 4950 317.713876856 ) ( 4250 4950 600 ) ( 4250 5000 313.50425632 ) ( 4250 5000 600 ) ( 4300 4000 304.436767578 ) ( 4300 4050 293.198307426 ) ( 4300 4000 600 ) ( 4300 4050 600 ) ( 4300 4100 291.284454346 ) ( 4300 4100 600 ) ( 4300 4150 298.265012511 ) ( 4300 4150 600 ) ( 4300 4200 299.058441162 ) ( 4300 4200 600 ) ( 4300 4250 308.067612516 ) ( 4300 4250 600 ) ( 4300 4300 323.762481689 ) ( 4300 4300 600 ) ( 4300 4350 339.678373532 ) ( 4300 4350 600 ) ( 4300 4400 353.384124756 ) ( 4300 4400 600 ) ( 4300 4450 364.620867514 ) ( 4300 4450 600 ) ( 4300 4500 370.480957031 ) ( 4300 4500 600 ) ( 4300 4550 367.972244364 ) ( 4300 4550 600 ) ( 4300 4600 360.748809814 ) ( 4300 4600 600 ) ( 4300 4650 351.785034247 ) ( 4300 4650 600 ) ( 4300 4700 342.734924316 ) ( 4300 4700 600 ) ( 4300 4750 342.563832899 ) ( 4300 4750 600 ) ( 4300 4800 341.013946533 ) ( 4300 4800 600 ) ( 4300 4850 335.514661463 ) ( 4300 4850 600 ) ( 4300 4900 328.800262451 ) ( 4300 4900 600 ) ( 4300 4950 323.100487043 ) ( 4300 4950 600 ) ( 4300 5000 317.982543945 ) ( 4300 5000 600 ) ( 4350 4000 302.282398091 ) ( 4350 4050 297.517847766 ) ( 4350 4000 600 ) ( 4350 4050 600 ) ( 4350 4100 305.090008396 ) ( 4350 4100 600 ) ( 4350 4150 315.887361985 ) ( 4350 4150 600 ) ( 4350 4200 315.224842006 ) ( 4350 4200 600 ) ( 4350 4250 311.314919777 ) ( 4350 4250 600 ) ( 4350 4300 319.996423457 ) ( 4350 4300 600 ) ( 4350 4350 337.327085328 ) ( 4350 4350 600 ) ( 4350 4400 351.148554195 ) ( 4350 4400 600 ) ( 4350 4450 364.92425326 ) ( 4350 4450 600 ) ( 4350 4500 373.054335237 ) ( 4350 4500 600 ) ( 4350 4550 369.786810392 ) ( 4350 4550 600 ) ( 4350 4600 363.310957998 ) ( 4350 4600 600 ) ( 4350 4650 358.175316621 ) ( 4350 4650 600 ) ( 4350 4700 352.819310429 ) ( 4350 4700 600 ) ( 4350 4750 351.031733923 ) ( 4350 4750 600 ) ( 4350 4800 347.203174058 ) ( 4350 4800 600 ) ( 4350 4850 339.66785244 ) ( 4350 4850 600 ) ( 4350 4900 332.518542621 ) ( 4350 4900 600 ) ( 4350 4950 326.271514721 ) ( 4350 4950 600 ) ( 4350 5000 319.817787073 ) ( 4350 5000 600 ) ( 4400 4000 301.514434814 ) ( 4400 4050 297.418215305 ) ( 4400 4000 600 ) ( 4400 4050 600 ) ( 4400 4100 311.825836182 ) ( 4400 4100 600 ) ( 4400 4150 330.453471796 ) ( 4400 4150 600 ) ( 4400 4200 335.233673096 ) ( 4400 4200 600 ) ( 4400 4250 324.711924722 ) ( 4400 4250 600 ) ( 4400 4300 328.19921875 ) ( 4400 4300 600 ) ( 4400 4350 344.895698781 ) ( 4400 4350 600 ) ( 4400 4400 358.045043945 ) ( 4400 4400 600 ) ( 4400 4450 369.751742615 ) ( 4400 4450 600 ) ( 4400 4500 375.407562256 ) ( 4400 4500 600 ) ( 4400 4550 372.744121541 ) ( 4400 4550 600 ) ( 4400 4600 367.611968994 ) ( 4400 4600 600 ) ( 4400 4650 364.047109122 ) ( 4400 4650 600 ) ( 4400 4700 362.42477417 ) ( 4400 4700 600 ) ( 4400 4750 358.793080743 ) ( 4400 4750 600 ) ( 4400 4800 350.18182373 ) ( 4400 4800 600 ) ( 4400 4850 341.155129623 ) ( 4400 4850 600 ) ( 4400 4900 333.645874023 ) ( 4400 4900 600 ) ( 4400 4950 326.533603241 ) ( 4400 4950 600 ) ( 4400 5000 317.78918457 ) ( 4400 5000 600 ) ( 4450 4000 305.10845611 ) ( 4450 4050 304.08762447 ) ( 4450 4000 600 ) ( 4450 4050 600 ) ( 4450 4100 319.094899288 ) ( 4450 4100 600 ) ( 4450 4150 336.517522677 ) ( 4450 4150 600 ) ( 4450 4200 344.865780734 ) ( 4450 4200 600 ) ( 4450 4250 340.065830419 ) ( 4450 4250 600 ) ( 4450 4300 337.28414893 ) ( 4450 4300 600 ) ( 4450 4350 348.38205186 ) ( 4450 4350 600 ) ( 4450 4400 361.627386558 ) ( 4450 4400 600 ) ( 4450 4450 371.247774259 ) ( 4450 4450 600 ) ( 4450 4500 377.12218334 ) ( 4450 4500 600 ) ( 4450 4550 376.987741756 ) ( 4450 4550 600 ) ( 4450 4600 372.732927034 ) ( 4450 4600 600 ) ( 4450 4650 367.423017311 ) ( 4450 4650 600 ) ( 4450 4700 363.498610522 ) ( 4450 4700 600 ) ( 4450 4750 356.74358201 ) ( 4450 4750 600 ) ( 4450 4800 348.266856583 ) ( 4450 4800 600 ) ( 4450 4850 340.668045352 ) ( 4450 4850 600 ) ( 4450 4900 333.062216752 ) ( 4450 4900 600 ) ( 4450 4950 324.139972241 ) ( 4450 4950 600 ) ( 4450 5000 313.578485265 ) ( 4450 5000 600 ) ( 4500 4000 308.862243652 ) ( 4500 4050 307.212841001 ) ( 4500 4000 600 ) ( 4500 4050 600 ) ( 4500 4100 320.391998291 ) ( 4500 4100 600 ) ( 4500 4150 336.745434708 ) ( 4500 4150 600 ) ( 4500 4200 349.717681885 ) ( 4500 4200 600 ) ( 4500 4250 354.642975669 ) ( 4500 4250 600 ) ( 4500 4300 350.898834229 ) ( 4500 4300 600 ) ( 4500 4350 354.482909485 ) ( 4500 4350 600 ) ( 4500 4400 363.378234863 ) ( 4500 4400 600 ) ( 4500 4450 370.404314912 ) ( 4500 4450 600 ) ( 4500 4500 375.134429932 ) ( 4500 4500 600 ) ( 4500 4550 376.617371306 ) ( 4500 4550 600 ) ( 4500 4600 373.594665527 ) ( 4500 4600 600 ) ( 4500 4650 366.107607696 ) ( 4500 4650 600 ) ( 4500 4700 357.261474609 ) ( 4500 4700 600 ) ( 4500 4750 349.790070686 ) ( 4500 4750 600 ) ( 4500 4800 344.121246338 ) ( 4500 4800 600 ) ( 4500 4850 338.140257805 ) ( 4500 4850 600 ) ( 4500 4900 331.432800293 ) ( 4500 4900 600 ) ( 4500 4950 322.63325741 ) ( 4500 4950 600 ) ( 4500 5000 312.365203857 ) ( 4500 5000 600 ) ( 4550 4000 311.709466551 ) ( 4550 4050 316.308628938 ) ( 4550 4000 600 ) ( 4550 4050 600 ) ( 4550 4100 332.139501106 ) ( 4550 4100 600 ) ( 4550 4150 344.335427912 ) ( 4550 4150 600 ) ( 4550 4200 352.899002749 ) ( 4550 4200 600 ) ( 4550 4250 358.129981141 ) ( 4550 4250 600 ) ( 4550 4300 357.598522997 ) ( 4550 4300 600 ) ( 4550 4350 358.171564533 ) ( 4550 4350 600 ) ( 4550 4400 361.975880299 ) ( 4550 4400 600 ) ( 4550 4450 365.408093237 ) ( 4550 4450 600 ) ( 4550 4500 369.453474526 ) ( 4550 4500 600 ) ( 4550 4550 371.076520568 ) ( 4550 4550 600 ) ( 4550 4600 368.261311181 ) ( 4550 4600 600 ) ( 4550 4650 360.230176671 ) ( 4550 4650 600 ) ( 4550 4700 351.212701043 ) ( 4550 4700 600 ) ( 4550 4750 344.40018987 ) ( 4550 4750 600 ) ( 4550 4800 339.068686067 ) ( 4550 4800 600 ) ( 4550 4850 332.749643021 ) ( 4550 4850 600 ) ( 4550 4900 324.914832308 ) ( 4550 4900 600 ) ( 4550 4950 316.41265231 ) ( 4550 4950 600 ) ( 4550 5000 307.154255678 ) ( 4550 5000 600 ) ( 4600 4000 314.198120117 ) ( 4600 4050 318.665474592 ) ( 4600 4000 600 ) ( 4600 4050 600 ) ( 4600 4100 330.294952393 ) ( 4600 4100 600 ) ( 4600 4150 343.592653251 ) ( 4600 4150 600 ) ( 4600 4200 352.507537842 ) ( 4600 4200 600 ) ( 4600 4250 357.32715336 ) ( 4600 4250 600 ) ( 4600 4300 359.073944092 ) ( 4600 4300 600 ) ( 4600 4350 358.627361833 ) ( 4600 4350 600 ) ( 4600 4400 358.484039307 ) ( 4600 4400 600 ) ( 4600 4450 359.701802784 ) ( 4600 4450 600 ) ( 4600 4500 362.97845459 ) ( 4600 4500 600 ) ( 4600 4550 363.633501645 ) ( 4600 4550 600 ) ( 4600 4600 359.778564453 ) ( 4600 4600 600 ) ( 4600 4650 352.551297479 ) ( 4600 4650 600 ) ( 4600 4700 345.12878418 ) ( 4600 4700 600 ) ( 4600 4750 338.410913466 ) ( 4600 4750 600 ) ( 4600 4800 332.955352783 ) ( 4600 4800 600 ) ( 4600 4850 326.334636359 ) ( 4600 4850 600 ) ( 4600 4900 316.831726074 ) ( 4600 4900 600 ) ( 4600 4950 307.949371212 ) ( 4600 4950 600 ) ( 4600 5000 299.558624268 ) ( 4600 5000 600 ) ( 4650 4000 322.31623984 ) ( 4650 4050 328.221912088 ) ( 4650 4000 600 ) ( 4650 4050 600 ) ( 4650 4100 336.640259044 ) ( 4650 4100 600 ) ( 4650 4150 346.663020726 ) ( 4650 4150 600 ) ( 4650 4200 354.384171903 ) ( 4650 4200 600 ) ( 4650 4250 358.519362504 ) ( 4650 4250 600 ) ( 4650 4300 360.198587331 ) ( 4650 4300 600 ) ( 4650 4350 356.185970242 ) ( 4650 4350 600 ) ( 4650 4400 352.474507413 ) ( 4650 4400 600 ) ( 4650 4450 354.004395979 ) ( 4650 4450 600 ) ( 4650 4500 357.221639782 ) ( 4650 4500 600 ) ( 4650 4550 356.964424431 ) ( 4650 4550 600 ) ( 4650 4600 353.001405569 ) ( 4650 4600 600 ) ( 4650 4650 345.753234815 ) ( 4650 4650 600 ) ( 4650 4700 337.830852012 ) ( 4650 4700 600 ) ( 4650 4750 331.842071773 ) ( 4650 4750 600 ) ( 4650 4800 326.36333446 ) ( 4650 4800 600 ) ( 4650 4850 320.293789176 ) ( 4650 4850 600 ) ( 4650 4900 311.15663265 ) ( 4650 4900 600 ) ( 4650 4950 302.447923849 ) ( 4650 4950 600 ) ( 4650 5000 294.532408971 ) ( 4650 5000 600 ) ( 4700 4000 333.222137451 ) ( 4700 4050 343.372435556 ) ( 4700 4000 600 ) ( 4700 4050 600 ) ( 4700 4100 353.123596191 ) ( 4700 4100 600 ) ( 4700 4150 360.972834005 ) ( 4700 4150 600 ) ( 4700 4200 366.668029785 ) ( 4700 4200 600 ) ( 4700 4250 366.355852531 ) ( 4700 4250 600 ) ( 4700 4300 362.155639648 ) ( 4700 4300 600 ) ( 4700 4350 354.063430537 ) ( 4700 4350 600 ) ( 4700 4400 344.890014648 ) ( 4700 4400 600 ) ( 4700 4450 345.935164523 ) ( 4700 4450 600 ) ( 4700 4500 348.31539917 ) ( 4700 4500 600 ) ( 4700 4550 347.314981377 ) ( 4700 4550 600 ) ( 4700 4600 343.42855835 ) ( 4700 4600 600 ) ( 4700 4650 337.01433808 ) ( 4700 4650 600 ) ( 4700 4700 329.284912109 ) ( 4700 4700 600 ) ( 4700 4750 323.923167897 ) ( 4700 4750 600 ) ( 4700 4800 318.548614502 ) ( 4700 4800 600 ) ( 4700 4850 313.260037919 ) ( 4700 4850 600 ) ( 4700 4900 305.539855957 ) ( 4700 4900 600 ) ( 4700 4950 297.73418858 ) ( 4700 4950 600 ) ( 4700 5000 291.120391846 ) ( 4700 5000 600 ) ( 4750 4000 346.582415076 ) ( 4750 4050 357.374344713 ) ( 4750 4000 600 ) ( 4750 4050 600 ) ( 4750 4100 368.145240452 ) ( 4750 4100 600 ) ( 4750 4150 373.549119351 ) ( 4750 4150 600 ) ( 4750 4200 375.832712412 ) ( 4750 4200 600 ) ( 4750 4250 371.363495206 ) ( 4750 4250 600 ) ( 4750 4300 364.718736428 ) ( 4750 4300 600 ) ( 4750 4350 355.455673413 ) ( 4750 4350 600 ) ( 4750 4400 345.319609416 ) ( 4750 4400 600 ) ( 4750 4450 337.913692052 ) ( 4750 4450 600 ) ( 4750 4500 336.3343238 ) ( 4750 4500 600 ) ( 4750 4550 337.3471292 ) ( 4750 4550 600 ) ( 4750 4600 334.248880522 ) ( 4750 4600 600 ) ( 4750 4650 329.01219536 ) ( 4750 4650 600 ) ( 4750 4700 321.813412002 ) ( 4750 4700 600 ) ( 4750 4750 315.931835012 ) ( 4750 4750 600 ) ( 4750 4800 311.638581418 ) ( 4750 4800 600 ) ( 4750 4850 308.672476614 ) ( 4750 4850 600 ) ( 4750 4900 303.82915871 ) ( 4750 4900 600 ) ( 4750 4950 299.30224773 ) ( 4750 4950 600 ) ( 4750 5000 295.900276943 ) ( 4750 5000 600 ) ( 4800 4000 363.130523682 ) ( 4800 4050 372.022974828 ) ( 4800 4000 600 ) ( 4800 4050 600 ) ( 4800 4100 381.424926758 ) ( 4800 4100 600 ) ( 4800 4150 384.38893142 ) ( 4800 4150 600 ) ( 4800 4200 382.50201416 ) ( 4800 4200 600 ) ( 4800 4250 375.700930457 ) ( 4800 4250 600 ) ( 4800 4300 366.620758057 ) ( 4800 4300 600 ) ( 4800 4350 357.54048187 ) ( 4800 4350 600 ) ( 4800 4400 347.394287109 ) ( 4800 4400 600 ) ( 4800 4450 332.701080554 ) ( 4800 4450 600 ) ( 4800 4500 323.927246094 ) ( 4800 4500 600 ) ( 4800 4550 326.965388175 ) ( 4800 4550 600 ) ( 4800 4600 325.74331665 ) ( 4800 4600 600 ) ( 4800 4650 321.618484264 ) ( 4800 4650 600 ) ( 4800 4700 315.397247314 ) ( 4800 4700 600 ) ( 4800 4750 308.902180016 ) ( 4800 4750 600 ) ( 4800 4800 305.510803223 ) ( 4800 4800 600 ) ( 4800 4850 303.813852068 ) ( 4800 4850 600 ) ( 4800 4900 301.91104126 ) ( 4800 4900 600 ) ( 4800 4950 299.693791902 ) ( 4800 4950 600 ) ( 4800 5000 299.329498291 ) ( 4800 5000 600 ) ( 4850 4000 378.958251554 ) ( 4850 4050 383.793150995 ) ( 4850 4000 600 ) ( 4850 4050 600 ) ( 4850 4100 389.596052566 ) ( 4850 4100 600 ) ( 4850 4150 388.238792555 ) ( 4850 4150 600 ) ( 4850 4200 384.17933753 ) ( 4850 4200 600 ) ( 4850 4250 375.25131592 ) ( 4850 4250 600 ) ( 4850 4300 365.722959785 ) ( 4850 4300 600 ) ( 4850 4350 354.906064601 ) ( 4850 4350 600 ) ( 4850 4400 345.513330966 ) ( 4850 4400 600 ) ( 4850 4450 331.100885674 ) ( 4850 4450 600 ) ( 4850 4500 319.04019025 ) ( 4850 4500 600 ) ( 4850 4550 317.084877139 ) ( 4850 4550 600 ) ( 4850 4600 318.519338337 ) ( 4850 4600 600 ) ( 4850 4650 313.791022702 ) ( 4850 4650 600 ) ( 4850 4700 308.42198693 ) ( 4850 4700 600 ) ( 4850 4750 303.594690944 ) ( 4850 4750 600 ) ( 4850 4800 301.010069002 ) ( 4850 4800 600 ) ( 4850 4850 300.073072628 ) ( 4850 4850 600 ) ( 4850 4900 298.841326358 ) ( 4850 4900 600 ) ( 4850 4950 296.964866172 ) ( 4850 4950 600 ) ( 4850 5000 296.012108106 ) ( 4850 5000 600 ) ( 4900 4000 391.682128906 ) ( 4900 4050 392.143146542 ) ( 4900 4000 600 ) ( 4900 4050 600 ) ( 4900 4100 390.216033936 ) ( 4900 4100 600 ) ( 4900 4150 385.624222253 ) ( 4900 4150 600 ) ( 4900 4200 380.0262146 ) ( 4900 4200 600 ) ( 4900 4250 369.464981758 ) ( 4900 4250 600 ) ( 4900 4300 360.713806152 ) ( 4900 4300 600 ) ( 4900 4350 349.367118985 ) ( 4900 4350 600 ) ( 4900 4400 341.750457764 ) ( 4900 4400 600 ) ( 4900 4450 329.775032395 ) ( 4900 4450 600 ) ( 4900 4500 318.363098145 ) ( 4900 4500 600 ) ( 4900 4550 310.216751871 ) ( 4900 4550 600 ) ( 4900 4600 311.761352539 ) ( 4900 4600 600 ) ( 4900 4650 306.936163643 ) ( 4900 4650 600 ) ( 4900 4700 302.525390625 ) ( 4900 4700 600 ) ( 4900 4750 298.972499489 ) ( 4900 4750 600 ) ( 4900 4800 297.240661621 ) ( 4900 4800 600 ) ( 4900 4850 296.081264696 ) ( 4900 4850 600 ) ( 4900 4900 294.444122314 ) ( 4900 4900 600 ) ( 4900 4950 292.410194264 ) ( 4900 4950 600 ) ( 4900 5000 289.977752686 ) ( 4900 5000 600 ) ( 4950 4000 394.488390037 ) ( 4950 4050 389.270156704 ) ( 4950 4000 600 ) ( 4950 4050 600 ) ( 4950 4100 383.489063006 ) ( 4950 4100 600 ) ( 4950 4150 376.378961256 ) ( 4950 4150 600 ) ( 4950 4200 368.913402242 ) ( 4950 4200 600 ) ( 4950 4250 359.234229653 ) ( 4950 4250 600 ) ( 4950 4300 350.53169492 ) ( 4950 4300 600 ) ( 4950 4350 341.752712332 ) ( 4950 4350 600 ) ( 4950 4400 334.897324564 ) ( 4950 4400 600 ) ( 4950 4450 326.101983705 ) ( 4950 4450 600 ) ( 4950 4500 317.319322065 ) ( 4950 4500 600 ) ( 4950 4550 307.960524334 ) ( 4950 4550 600 ) ( 4950 4600 303.943653562 ) ( 4950 4600 600 ) ( 4950 4650 301.460201383 ) ( 4950 4650 600 ) ( 4950 4700 298.492514797 ) ( 4950 4700 600 ) ( 4950 4750 295.436557582 ) ( 4950 4750 600 ) ( 4950 4800 294.161029301 ) ( 4950 4800 600 ) ( 4950 4850 292.911583106 ) ( 4950 4850 600 ) ( 4950 4900 290.562417739 ) ( 4950 4900 600 ) ( 4950 4950 288.408477926 ) ( 4950 4950 600 ) ( 4950 5000 285.991714065 ) ( 4950 5000 600 ) ( 5000 4000 389.778045654 ) ( 5000 4050 382.105024437 ) ( 5000 4000 600 ) ( 5000 4050 600 ) ( 5000 4100 374.760192871 ) ( 5000 4100 600 ) ( 5000 4150 366.760551939 ) ( 5000 4150 600 ) ( 5000 4200 358.084899902 ) ( 5000 4200 600 ) ( 5000 4250 349.831812182 ) ( 5000 4250 600 ) ( 5000 4300 341.99105835 ) ( 5000 4300 600 ) ( 5000 4350 334.43289954 ) ( 5000 4350 600 ) ( 5000 4400 327.038543701 ) ( 5000 4400 600 ) ( 5000 4450 319.890168391 ) ( 5000 4450 600 ) ( 5000 4500 313.646392822 ) ( 5000 4500 600 ) ( 5000 4550 306.726446938 ) ( 5000 4550 600 ) ( 5000 4600 299.529052734 ) ( 5000 4600 600 ) ( 5000 4650 297.581133647 ) ( 5000 4650 600 ) ( 5000 4700 295.312744141 ) ( 5000 4700 600 ) ( 5000 4750 292.135200635 ) ( 5000 4750 600 ) ( 5000 4800 290.733978271 ) ( 5000 4800 600 ) ( 5000 4850 290.075487081 ) ( 5000 4850 600 ) ( 5000 4900 287.757965088 ) ( 5000 4900 600 ) ( 5000 4950 285.358543129 ) ( 5000 4950 600 ) ( 5000 5000 282.857543945 ) ( 5000 5000 600 ) );
