/*--------------------------------*- C++ -*----------------------------------*\
| =========                 |                                                 |
| \\      /  F ield         | OpenFOAM: The Open Source CFD Toolbox           |
|  \\    /   O peration     | Version:  2.0.1                                 |
|   \\  /    A nd           | Web:      www.OpenFOAM.com                      |
|    \\/     M anipulation  |                                                 |
\*---------------------------------------------------------------------------*/
FoamFile
{
    version     2.0;
    format      ascii;
    class       dictionary;
    object      terrainBlockMesherDict;
}
// * * * * * * * * * * * * * * * * * * * * * * * * * * * * * * * * * * * * * //


stl
{
 //   Deponie_landscape2.stl
 //   rectangle_deponie.stl
    LandscapeKasselNoHoles2.stl
    {
        type triSurfaceMesh;

        //tolerance   1E-5;   // optional:non-default tolerance on intersections
        //maxTreeDepth 10;    // optional:depth of octree. Decrease only in case
                              // of memory limitations.
    }
};



coordinates
{

	origin		(0 0 0);
	
	baseVectors	(
				/*( 0.8660  0.5  0) // terrain base 1
				( -0.5  0.8660  0) // terrain base 2*/
				( 1  0  0) // terrain direction 1
				(0  1  0) // terrain direction 2			
				( 0  0  1) // terrain normal (height direction)
			);

}


blockManager
{

	// Specification of the over all box. Height values will be adjusted to stl.
	// p_corner is the lower left box corner, the above base vectors span the box.
	// Dimensions are lengths scales of the box, wrt base vectors given above.
	p_corner	(2000 2000 280);
	dimensions	(1500.0 1000.0 2000.0);
	
	// Parameters for outside-STL-interpolation, if needed.
	// The interpolation to the zero level is so far done by the function
	//         f(s) = (1 - s) * exp(-A * pow(s,B)
	// 
	stlInsideBox
	{
		//p_corner_inside_stl   	(50 50 0);
		p_corner_inside_stl   	(2000 2000 280);
		//dimensions_inside_stl 	(9180.0 8220.0 1000.0);
		dimensions_inside_stl 	(1500.0 1000.0 2000.0);
		zeroLevel		0.0;
		f_constant_A		0.5;
		f_constant_B		1.0;	
	}

	// a point well above the stl.
	p_above		(0 0 3000.0);

	// the numner of blocks in terrain directions 1 and 2, z will be ignored and set to 1
	blocks		(8 12 1);

	// the number of cells per block in the three directions
	cells		(5 4 5);

	// the maximal distance searched for projection
	maxDistProj	10000;

	// the grading command
	grading		simpleGrading;
	gradingFactors	(1 1 1);

	// the patch names
	patch_name_west	        west;
	patch_name_east	        east;
	patch_name_north	north;
	patch_name_south	south;
	patch_name_sky	        top;
	patch_name_ground	bottom;	
	
	// the patch types
	// (modifyOrography overwrites for makeCyclic-commands)
	patch_type_west	        patch;
	patch_type_east	        patch;
	patch_type_north	patch;
	patch_type_south	patch;
	patch_type_sky	        patch;
	patch_type_ground	wall;

	// create an outer cylinder
	outerCylinder
	{
	  centrePoint                   (2500 2500 280);
	  radius                        3000;
	  radialGrading                 10;
	  radialBlockCells              30;
	  interpolationLinearFraction   0.7;
	  firstSectionStartDirection    (-1 1 0);
	  numberOfSections              8;
	}

	// check;

}


// ************************************************************************* //
