/*--------------------------------*- C++ -*----------------------------------*\
| =========                 |                                                 |
| \\      /  F ield         | OpenFOAM: The Open Source CFD Toolbox           |
|  \\    /   O peration     | Version:  2.1.1                                 |
|   \\  /    A nd           | Web:      www.OpenFOAM.org                      |
|    \\/     M anipulation  |                                                 |
\*---------------------------------------------------------------------------*/
FoamFile
{
    version     2.0;
    format      ascii;
    class       dictionary;
    location    "constant/polyMesh";
    object      blockMeshDict;
}
// * * * * * * * * * * * * * * * * * * * * * * * * * * * * * * * * * * * * * //

vertices        1922 ( ( 2000 2000 200 ) ( 2166.66666667 2000 200 ) ( 2166.66666667 2166.66666667 200 ) ( 2000 2166.66666667 200 ) ( 2000 2000 600 ) ( 2166.66666667 2000 600 ) ( 2166.66666667 2166.66666667 600 ) ( 2000 2166.66666667 600 ) ( 2166.66666667 2333.33333333 200 ) ( 2000 2333.33333333 200 ) ( 2166.66666667 2333.33333333 600 ) ( 2000 2333.33333333 600 ) ( 2166.66666667 2500 200 ) ( 2000 2500 200 ) ( 2166.66666667 2500 600 ) ( 2000 2500 600 ) ( 2166.66666667 2666.66666667 200 ) ( 2000 2666.66666667 200 ) ( 2166.66666667 2666.66666667 600 ) ( 2000 2666.66666667 600 ) ( 2166.66666667 2833.33333333 200 ) ( 2000 2833.33333333 200 ) ( 2166.66666667 2833.33333333 600 ) ( 2000 2833.33333333 600 ) ( 2166.66666667 3000 200 ) ( 2000 3000 200 ) ( 2166.66666667 3000 600 ) ( 2000 3000 600 ) ( 2166.66666667 3166.66666667 200 ) ( 2000 3166.66666667 200 ) ( 2166.66666667 3166.66666667 600 ) ( 2000 3166.66666667 600 ) ( 2166.66666667 3333.33333333 200 ) ( 2000 3333.33333333 200 ) ( 2166.66666667 3333.33333333 600 ) ( 2000 3333.33333333 600 ) ( 2166.66666667 3500 200 ) ( 2000 3500 200 ) ( 2166.66666667 3500 600 ) ( 2000 3500 600 ) ( 2166.66666667 3666.66666667 200 ) ( 2000 3666.66666667 200 ) ( 2166.66666667 3666.66666667 600 ) ( 2000 3666.66666667 600 ) ( 2166.66666667 3833.33333333 200 ) ( 2000 3833.33333333 200 ) ( 2166.66666667 3833.33333333 600 ) ( 2000 3833.33333333 600 ) ( 2166.66666667 4000 200 ) ( 2000 4000 200 ) ( 2166.66666667 4000 600 ) ( 2000 4000 600 ) ( 2166.66666667 4166.66666667 200 ) ( 2000 4166.66666667 200 ) ( 2166.66666667 4166.66666667 600 ) ( 2000 4166.66666667 600 ) ( 2166.66666667 4333.33333333 200 ) ( 2000 4333.33333333 200 ) ( 2166.66666667 4333.33333333 600 ) ( 2000 4333.33333333 600 ) ( 2166.66666667 4500 200 ) ( 2000 4500 200 ) ( 2166.66666667 4500 600 ) ( 2000 4500 600 ) ( 2166.66666667 4666.66666667 200 ) ( 2000 4666.66666667 200 ) ( 2166.66666667 4666.66666667 600 ) ( 2000 4666.66666667 600 ) ( 2166.66666667 4833.33333333 200 ) ( 2000 4833.33333333 200 ) ( 2166.66666667 4833.33333333 600 ) ( 2000 4833.33333333 600 ) ( 2166.66666667 5000 200 ) ( 2000 5000 200 ) ( 2166.66666667 5000 600 ) ( 2000 5000 600 ) ( 2166.66666667 5166.66666667 200 ) ( 2000 5166.66666667 200 ) ( 2166.66666667 5166.66666667 600 ) ( 2000 5166.66666667 600 ) ( 2166.66666667 5333.33333333 200 ) ( 2000 5333.33333333 200 ) ( 2166.66666667 5333.33333333 600 ) ( 2000 5333.33333333 600 ) ( 2166.66666667 5500 200 ) ( 2000 5500 200 ) ( 2166.66666667 5500 600 ) ( 2000 5500 600 ) ( 2166.66666667 5666.66666667 200 ) ( 2000 5666.66666667 200 ) ( 2166.66666667 5666.66666667 600 ) ( 2000 5666.66666667 600 ) ( 2166.66666667 5833.33333333 200 ) ( 2000 5833.33333333 200 ) ( 2166.66666667 5833.33333333 600 ) ( 2000 5833.33333333 600 ) ( 2166.66666667 6000 200 ) ( 2000 6000 200 ) ( 2166.66666667 6000 600 ) ( 2000 6000 600 ) ( 2166.66666667 6166.66666667 200 ) ( 2000 6166.66666667 200 ) ( 2166.66666667 6166.66666667 600 ) ( 2000 6166.66666667 600 ) ( 2166.66666667 6333.33333333 200 ) ( 2000 6333.33333333 200 ) ( 2166.66666667 6333.33333333 600 ) ( 2000 6333.33333333 600 ) ( 2166.66666667 6500 200 ) ( 2000 6500 200 ) ( 2166.66666667 6500 600 ) ( 2000 6500 600 ) ( 2166.66666667 6666.66666667 200 ) ( 2000 6666.66666667 200 ) ( 2166.66666667 6666.66666667 600 ) ( 2000 6666.66666667 600 ) ( 2166.66666667 6833.33333333 200 ) ( 2000 6833.33333333 200 ) ( 2166.66666667 6833.33333333 600 ) ( 2000 6833.33333333 600 ) ( 2166.66666667 7000 200 ) ( 2000 7000 200 ) ( 2166.66666667 7000 600 ) ( 2000 7000 600 ) ( 2333.33333333 2000 200 ) ( 2333.33333333 2166.66666667 200 ) ( 2333.33333333 2000 600 ) ( 2333.33333333 2166.66666667 600 ) ( 2333.33333333 2333.33333333 200 ) ( 2333.33333333 2333.33333333 600 ) ( 2333.33333333 2500 200 ) ( 2333.33333333 2500 600 ) ( 2333.33333333 2666.66666667 200 ) ( 2333.33333333 2666.66666667 600 ) ( 2333.33333333 2833.33333333 200 ) ( 2333.33333333 2833.33333333 600 ) ( 2333.33333333 3000 200 ) ( 2333.33333333 3000 600 ) ( 2333.33333333 3166.66666667 200 ) ( 2333.33333333 3166.66666667 600 ) ( 2333.33333333 3333.33333333 200 ) ( 2333.33333333 3333.33333333 600 ) ( 2333.33333333 3500 200 ) ( 2333.33333333 3500 600 ) ( 2333.33333333 3666.66666667 200 ) ( 2333.33333333 3666.66666667 600 ) ( 2333.33333333 3833.33333333 200 ) ( 2333.33333333 3833.33333333 600 ) ( 2333.33333333 4000 200 ) ( 2333.33333333 4000 600 ) ( 2333.33333333 4166.66666667 200 ) ( 2333.33333333 4166.66666667 600 ) ( 2333.33333333 4333.33333333 200 ) ( 2333.33333333 4333.33333333 600 ) ( 2333.33333333 4500 200 ) ( 2333.33333333 4500 600 ) ( 2333.33333333 4666.66666667 200 ) ( 2333.33333333 4666.66666667 600 ) ( 2333.33333333 4833.33333333 200 ) ( 2333.33333333 4833.33333333 600 ) ( 2333.33333333 5000 200 ) ( 2333.33333333 5000 600 ) ( 2333.33333333 5166.66666667 200 ) ( 2333.33333333 5166.66666667 600 ) ( 2333.33333333 5333.33333333 200 ) ( 2333.33333333 5333.33333333 600 ) ( 2333.33333333 5500 200 ) ( 2333.33333333 5500 600 ) ( 2333.33333333 5666.66666667 200 ) ( 2333.33333333 5666.66666667 600 ) ( 2333.33333333 5833.33333333 200 ) ( 2333.33333333 5833.33333333 600 ) ( 2333.33333333 6000 200 ) ( 2333.33333333 6000 600 ) ( 2333.33333333 6166.66666667 200 ) ( 2333.33333333 6166.66666667 600 ) ( 2333.33333333 6333.33333333 200 ) ( 2333.33333333 6333.33333333 600 ) ( 2333.33333333 6500 200 ) ( 2333.33333333 6500 600 ) ( 2333.33333333 6666.66666667 200 ) ( 2333.33333333 6666.66666667 600 ) ( 2333.33333333 6833.33333333 200 ) ( 2333.33333333 6833.33333333 600 ) ( 2333.33333333 7000 200 ) ( 2333.33333333 7000 600 ) ( 2500 2000 200 ) ( 2500 2166.66666667 200 ) ( 2500 2000 600 ) ( 2500 2166.66666667 600 ) ( 2500 2333.33333333 200 ) ( 2500 2333.33333333 600 ) ( 2500 2500 200 ) ( 2500 2500 600 ) ( 2500 2666.66666667 200 ) ( 2500 2666.66666667 600 ) ( 2500 2833.33333333 200 ) ( 2500 2833.33333333 600 ) ( 2500 3000 200 ) ( 2500 3000 600 ) ( 2500 3166.66666667 200 ) ( 2500 3166.66666667 600 ) ( 2500 3333.33333333 200 ) ( 2500 3333.33333333 600 ) ( 2500 3500 200 ) ( 2500 3500 600 ) ( 2500 3666.66666667 200 ) ( 2500 3666.66666667 600 ) ( 2500 3833.33333333 200 ) ( 2500 3833.33333333 600 ) ( 2500 4000 200 ) ( 2500 4000 600 ) ( 2500 4166.66666667 200 ) ( 2500 4166.66666667 600 ) ( 2500 4333.33333333 200 ) ( 2500 4333.33333333 600 ) ( 2500 4500 200 ) ( 2500 4500 600 ) ( 2500 4666.66666667 200 ) ( 2500 4666.66666667 600 ) ( 2500 4833.33333333 200 ) ( 2500 4833.33333333 600 ) ( 2500 5000 200 ) ( 2500 5000 600 ) ( 2500 5166.66666667 200 ) ( 2500 5166.66666667 600 ) ( 2500 5333.33333333 200 ) ( 2500 5333.33333333 600 ) ( 2500 5500 200 ) ( 2500 5500 600 ) ( 2500 5666.66666667 200 ) ( 2500 5666.66666667 600 ) ( 2500 5833.33333333 200 ) ( 2500 5833.33333333 600 ) ( 2500 6000 200 ) ( 2500 6000 600 ) ( 2500 6166.66666667 200 ) ( 2500 6166.66666667 600 ) ( 2500 6333.33333333 200 ) ( 2500 6333.33333333 600 ) ( 2500 6500 200 ) ( 2500 6500 600 ) ( 2500 6666.66666667 200 ) ( 2500 6666.66666667 600 ) ( 2500 6833.33333333 200 ) ( 2500 6833.33333333 600 ) ( 2500 7000 200 ) ( 2500 7000 600 ) ( 2666.66666667 2000 200 ) ( 2666.66666667 2166.66666667 200 ) ( 2666.66666667 2000 600 ) ( 2666.66666667 2166.66666667 600 ) ( 2666.66666667 2333.33333333 200 ) ( 2666.66666667 2333.33333333 600 ) ( 2666.66666667 2500 200 ) ( 2666.66666667 2500 600 ) ( 2666.66666667 2666.66666667 200 ) ( 2666.66666667 2666.66666667 600 ) ( 2666.66666667 2833.33333333 200 ) ( 2666.66666667 2833.33333333 600 ) ( 2666.66666667 3000 200 ) ( 2666.66666667 3000 600 ) ( 2666.66666667 3166.66666667 200 ) ( 2666.66666667 3166.66666667 600 ) ( 2666.66666667 3333.33333333 200 ) ( 2666.66666667 3333.33333333 600 ) ( 2666.66666667 3500 200 ) ( 2666.66666667 3500 600 ) ( 2666.66666667 3666.66666667 200 ) ( 2666.66666667 3666.66666667 600 ) ( 2666.66666667 3833.33333333 200 ) ( 2666.66666667 3833.33333333 600 ) ( 2666.66666667 4000 200 ) ( 2666.66666667 4000 600 ) ( 2666.66666667 4166.66666667 200 ) ( 2666.66666667 4166.66666667 600 ) ( 2666.66666667 4333.33333333 200 ) ( 2666.66666667 4333.33333333 600 ) ( 2666.66666667 4500 200 ) ( 2666.66666667 4500 600 ) ( 2666.66666667 4666.66666667 200 ) ( 2666.66666667 4666.66666667 600 ) ( 2666.66666667 4833.33333333 200 ) ( 2666.66666667 4833.33333333 600 ) ( 2666.66666667 5000 200 ) ( 2666.66666667 5000 600 ) ( 2666.66666667 5166.66666667 200 ) ( 2666.66666667 5166.66666667 600 ) ( 2666.66666667 5333.33333333 200 ) ( 2666.66666667 5333.33333333 600 ) ( 2666.66666667 5500 200 ) ( 2666.66666667 5500 600 ) ( 2666.66666667 5666.66666667 200 ) ( 2666.66666667 5666.66666667 600 ) ( 2666.66666667 5833.33333333 200 ) ( 2666.66666667 5833.33333333 600 ) ( 2666.66666667 6000 200 ) ( 2666.66666667 6000 600 ) ( 2666.66666667 6166.66666667 200 ) ( 2666.66666667 6166.66666667 600 ) ( 2666.66666667 6333.33333333 200 ) ( 2666.66666667 6333.33333333 600 ) ( 2666.66666667 6500 200 ) ( 2666.66666667 6500 600 ) ( 2666.66666667 6666.66666667 200 ) ( 2666.66666667 6666.66666667 600 ) ( 2666.66666667 6833.33333333 200 ) ( 2666.66666667 6833.33333333 600 ) ( 2666.66666667 7000 200 ) ( 2666.66666667 7000 600 ) ( 2833.33333333 2000 200 ) ( 2833.33333333 2166.66666667 200 ) ( 2833.33333333 2000 600 ) ( 2833.33333333 2166.66666667 600 ) ( 2833.33333333 2333.33333333 200 ) ( 2833.33333333 2333.33333333 600 ) ( 2833.33333333 2500 200 ) ( 2833.33333333 2500 600 ) ( 2833.33333333 2666.66666667 200 ) ( 2833.33333333 2666.66666667 600 ) ( 2833.33333333 2833.33333333 200 ) ( 2833.33333333 2833.33333333 600 ) ( 2833.33333333 3000 200 ) ( 2833.33333333 3000 600 ) ( 2833.33333333 3166.66666667 200 ) ( 2833.33333333 3166.66666667 600 ) ( 2833.33333333 3333.33333333 200 ) ( 2833.33333333 3333.33333333 600 ) ( 2833.33333333 3500 200 ) ( 2833.33333333 3500 600 ) ( 2833.33333333 3666.66666667 200 ) ( 2833.33333333 3666.66666667 600 ) ( 2833.33333333 3833.33333333 200 ) ( 2833.33333333 3833.33333333 600 ) ( 2833.33333333 4000 200 ) ( 2833.33333333 4000 600 ) ( 2833.33333333 4166.66666667 200 ) ( 2833.33333333 4166.66666667 600 ) ( 2833.33333333 4333.33333333 200 ) ( 2833.33333333 4333.33333333 600 ) ( 2833.33333333 4500 200 ) ( 2833.33333333 4500 600 ) ( 2833.33333333 4666.66666667 200 ) ( 2833.33333333 4666.66666667 600 ) ( 2833.33333333 4833.33333333 200 ) ( 2833.33333333 4833.33333333 600 ) ( 2833.33333333 5000 200 ) ( 2833.33333333 5000 600 ) ( 2833.33333333 5166.66666667 200 ) ( 2833.33333333 5166.66666667 600 ) ( 2833.33333333 5333.33333333 200 ) ( 2833.33333333 5333.33333333 600 ) ( 2833.33333333 5500 200 ) ( 2833.33333333 5500 600 ) ( 2833.33333333 5666.66666667 200 ) ( 2833.33333333 5666.66666667 600 ) ( 2833.33333333 5833.33333333 200 ) ( 2833.33333333 5833.33333333 600 ) ( 2833.33333333 6000 200 ) ( 2833.33333333 6000 600 ) ( 2833.33333333 6166.66666667 200 ) ( 2833.33333333 6166.66666667 600 ) ( 2833.33333333 6333.33333333 200 ) ( 2833.33333333 6333.33333333 600 ) ( 2833.33333333 6500 200 ) ( 2833.33333333 6500 600 ) ( 2833.33333333 6666.66666667 200 ) ( 2833.33333333 6666.66666667 600 ) ( 2833.33333333 6833.33333333 200 ) ( 2833.33333333 6833.33333333 600 ) ( 2833.33333333 7000 200 ) ( 2833.33333333 7000 600 ) ( 3000 2000 200 ) ( 3000 2166.66666667 200 ) ( 3000 2000 600 ) ( 3000 2166.66666667 600 ) ( 3000 2333.33333333 200 ) ( 3000 2333.33333333 600 ) ( 3000 2500 200 ) ( 3000 2500 600 ) ( 3000 2666.66666667 200 ) ( 3000 2666.66666667 600 ) ( 3000 2833.33333333 200 ) ( 3000 2833.33333333 600 ) ( 3000 3000 200 ) ( 3000 3000 600 ) ( 3000 3166.66666667 200 ) ( 3000 3166.66666667 600 ) ( 3000 3333.33333333 200 ) ( 3000 3333.33333333 600 ) ( 3000 3500 200 ) ( 3000 3500 600 ) ( 3000 3666.66666667 200 ) ( 3000 3666.66666667 600 ) ( 3000 3833.33333333 200 ) ( 3000 3833.33333333 600 ) ( 3000 4000 200 ) ( 3000 4000 600 ) ( 3000 4166.66666667 200 ) ( 3000 4166.66666667 600 ) ( 3000 4333.33333333 200 ) ( 3000 4333.33333333 600 ) ( 3000 4500 200 ) ( 3000 4500 600 ) ( 3000 4666.66666667 200 ) ( 3000 4666.66666667 600 ) ( 3000 4833.33333333 200 ) ( 3000 4833.33333333 600 ) ( 3000 5000 200 ) ( 3000 5000 600 ) ( 3000 5166.66666667 200 ) ( 3000 5166.66666667 600 ) ( 3000 5333.33333333 200 ) ( 3000 5333.33333333 600 ) ( 3000 5500 200 ) ( 3000 5500 600 ) ( 3000 5666.66666667 200 ) ( 3000 5666.66666667 600 ) ( 3000 5833.33333333 200 ) ( 3000 5833.33333333 600 ) ( 3000 6000 200 ) ( 3000 6000 600 ) ( 3000 6166.66666667 200 ) ( 3000 6166.66666667 600 ) ( 3000 6333.33333333 200 ) ( 3000 6333.33333333 600 ) ( 3000 6500 200 ) ( 3000 6500 600 ) ( 3000 6666.66666667 200 ) ( 3000 6666.66666667 600 ) ( 3000 6833.33333333 200 ) ( 3000 6833.33333333 600 ) ( 3000 7000 200 ) ( 3000 7000 600 ) ( 3166.66666667 2000 200 ) ( 3166.66666667 2166.66666667 200 ) ( 3166.66666667 2000 600 ) ( 3166.66666667 2166.66666667 600 ) ( 3166.66666667 2333.33333333 200 ) ( 3166.66666667 2333.33333333 600 ) ( 3166.66666667 2500 200 ) ( 3166.66666667 2500 600 ) ( 3166.66666667 2666.66666667 200 ) ( 3166.66666667 2666.66666667 600 ) ( 3166.66666667 2833.33333333 200 ) ( 3166.66666667 2833.33333333 600 ) ( 3166.66666667 3000 200 ) ( 3166.66666667 3000 600 ) ( 3166.66666667 3166.66666667 200 ) ( 3166.66666667 3166.66666667 600 ) ( 3166.66666667 3333.33333333 200 ) ( 3166.66666667 3333.33333333 600 ) ( 3166.66666667 3500 200 ) ( 3166.66666667 3500 600 ) ( 3166.66666667 3666.66666667 200 ) ( 3166.66666667 3666.66666667 600 ) ( 3166.66666667 3833.33333333 200 ) ( 3166.66666667 3833.33333333 600 ) ( 3166.66666667 4000 200 ) ( 3166.66666667 4000 600 ) ( 3166.66666667 4166.66666667 200 ) ( 3166.66666667 4166.66666667 600 ) ( 3166.66666667 4333.33333333 200 ) ( 3166.66666667 4333.33333333 600 ) ( 3166.66666667 4500 200 ) ( 3166.66666667 4500 600 ) ( 3166.66666667 4666.66666667 200 ) ( 3166.66666667 4666.66666667 600 ) ( 3166.66666667 4833.33333333 200 ) ( 3166.66666667 4833.33333333 600 ) ( 3166.66666667 5000 200 ) ( 3166.66666667 5000 600 ) ( 3166.66666667 5166.66666667 200 ) ( 3166.66666667 5166.66666667 600 ) ( 3166.66666667 5333.33333333 200 ) ( 3166.66666667 5333.33333333 600 ) ( 3166.66666667 5500 200 ) ( 3166.66666667 5500 600 ) ( 3166.66666667 5666.66666667 200 ) ( 3166.66666667 5666.66666667 600 ) ( 3166.66666667 5833.33333333 200 ) ( 3166.66666667 5833.33333333 600 ) ( 3166.66666667 6000 200 ) ( 3166.66666667 6000 600 ) ( 3166.66666667 6166.66666667 200 ) ( 3166.66666667 6166.66666667 600 ) ( 3166.66666667 6333.33333333 200 ) ( 3166.66666667 6333.33333333 600 ) ( 3166.66666667 6500 200 ) ( 3166.66666667 6500 600 ) ( 3166.66666667 6666.66666667 200 ) ( 3166.66666667 6666.66666667 600 ) ( 3166.66666667 6833.33333333 200 ) ( 3166.66666667 6833.33333333 600 ) ( 3166.66666667 7000 200 ) ( 3166.66666667 7000 600 ) ( 3333.33333333 2000 200 ) ( 3333.33333333 2166.66666667 200 ) ( 3333.33333333 2000 600 ) ( 3333.33333333 2166.66666667 600 ) ( 3333.33333333 2333.33333333 200 ) ( 3333.33333333 2333.33333333 600 ) ( 3333.33333333 2500 200 ) ( 3333.33333333 2500 600 ) ( 3333.33333333 2666.66666667 200 ) ( 3333.33333333 2666.66666667 600 ) ( 3333.33333333 2833.33333333 200 ) ( 3333.33333333 2833.33333333 600 ) ( 3333.33333333 3000 200 ) ( 3333.33333333 3000 600 ) ( 3333.33333333 3166.66666667 200 ) ( 3333.33333333 3166.66666667 600 ) ( 3333.33333333 3333.33333333 200 ) ( 3333.33333333 3333.33333333 600 ) ( 3333.33333333 3500 200 ) ( 3333.33333333 3500 600 ) ( 3333.33333333 3666.66666667 200.881492403 ) ( 3333.33333333 3666.66666667 600 ) ( 3333.33333333 3833.33333333 203.868490144 ) ( 3333.33333333 3833.33333333 600 ) ( 3333.33333333 4000 205.356191288 ) ( 3333.33333333 4000 600 ) ( 3333.33333333 4166.66666667 208.367536921 ) ( 3333.33333333 4166.66666667 600 ) ( 3333.33333333 4333.33333333 209.193918217 ) ( 3333.33333333 4333.33333333 600 ) ( 3333.33333333 4500 209.791007535 ) ( 3333.33333333 4500 600 ) ( 3333.33333333 4666.66666667 210.964631669 ) ( 3333.33333333 4666.66666667 600 ) ( 3333.33333333 4833.33333333 211.393851493 ) ( 3333.33333333 4833.33333333 600 ) ( 3333.33333333 5000 209.911146658 ) ( 3333.33333333 5000 600 ) ( 3333.33333333 5166.66666667 207.141371783 ) ( 3333.33333333 5166.66666667 600 ) ( 3333.33333333 5333.33333333 201.599919445 ) ( 3333.33333333 5333.33333333 600 ) ( 3333.33333333 5500 200 ) ( 3333.33333333 5500 600 ) ( 3333.33333333 5666.66666667 200 ) ( 3333.33333333 5666.66666667 600 ) ( 3333.33333333 5833.33333333 200 ) ( 3333.33333333 5833.33333333 600 ) ( 3333.33333333 6000 200 ) ( 3333.33333333 6000 600 ) ( 3333.33333333 6166.66666667 200 ) ( 3333.33333333 6166.66666667 600 ) ( 3333.33333333 6333.33333333 200 ) ( 3333.33333333 6333.33333333 600 ) ( 3333.33333333 6500 200 ) ( 3333.33333333 6500 600 ) ( 3333.33333333 6666.66666667 200 ) ( 3333.33333333 6666.66666667 600 ) ( 3333.33333333 6833.33333333 200 ) ( 3333.33333333 6833.33333333 600 ) ( 3333.33333333 7000 200 ) ( 3333.33333333 7000 600 ) ( 3500 2000 200 ) ( 3500 2166.66666667 200 ) ( 3500 2000 600 ) ( 3500 2166.66666667 600 ) ( 3500 2333.33333333 200 ) ( 3500 2333.33333333 600 ) ( 3500 2500 200 ) ( 3500 2500 600 ) ( 3500 2666.66666667 200 ) ( 3500 2666.66666667 600 ) ( 3500 2833.33333333 200 ) ( 3500 2833.33333333 600 ) ( 3500 3000 200 ) ( 3500 3000 600 ) ( 3500 3166.66666667 200 ) ( 3500 3166.66666667 600 ) ( 3500 3333.33333333 200 ) ( 3500 3333.33333333 600 ) ( 3500 3500 202.639354943 ) ( 3500 3500 600 ) ( 3500 3666.66666667 211.398686244 ) ( 3500 3666.66666667 600 ) ( 3500 3833.33333333 219.923393826 ) ( 3500 3833.33333333 600 ) ( 3500 4000 223.35869428 ) ( 3500 4000 600 ) ( 3500 4166.66666667 236.699278619 ) ( 3500 4166.66666667 600 ) ( 3500 4333.33333333 240.406313978 ) ( 3500 4333.33333333 600 ) ( 3500 4500 243.100128905 ) ( 3500 4500 600 ) ( 3500 4666.66666667 248.43740676 ) ( 3500 4666.66666667 600 ) ( 3500 4833.33333333 250.40485752 ) ( 3500 4833.33333333 600 ) ( 3500 5000 243.643818728 ) ( 3500 5000 600 ) ( 3500 5166.66666667 237.214061983 ) ( 3500 5166.66666667 600 ) ( 3500 5333.33333333 221.265668488 ) ( 3500 5333.33333333 600 ) ( 3500 5500 204.897610953 ) ( 3500 5500 600 ) ( 3500 5666.66666667 200 ) ( 3500 5666.66666667 600 ) ( 3500 5833.33333333 200 ) ( 3500 5833.33333333 600 ) ( 3500 6000 200 ) ( 3500 6000 600 ) ( 3500 6166.66666667 200 ) ( 3500 6166.66666667 600 ) ( 3500 6333.33333333 200 ) ( 3500 6333.33333333 600 ) ( 3500 6500 200 ) ( 3500 6500 600 ) ( 3500 6666.66666667 200 ) ( 3500 6666.66666667 600 ) ( 3500 6833.33333333 200 ) ( 3500 6833.33333333 600 ) ( 3500 7000 200 ) ( 3500 7000 600 ) ( 3666.66666667 2000 200 ) ( 3666.66666667 2166.66666667 200 ) ( 3666.66666667 2000 600 ) ( 3666.66666667 2166.66666667 600 ) ( 3666.66666667 2333.33333333 200 ) ( 3666.66666667 2333.33333333 600 ) ( 3666.66666667 2500 200 ) ( 3666.66666667 2500 600 ) ( 3666.66666667 2666.66666667 200 ) ( 3666.66666667 2666.66666667 600 ) ( 3666.66666667 2833.33333333 200 ) ( 3666.66666667 2833.33333333 600 ) ( 3666.66666667 3000 200 ) ( 3666.66666667 3000 600 ) ( 3666.66666667 3166.66666667 200 ) ( 3666.66666667 3166.66666667 600 ) ( 3666.66666667 3333.33333333 200.881605451 ) ( 3666.66666667 3333.33333333 600 ) ( 3666.66666667 3500 211.398927 ) ( 3666.66666667 3500 600 ) ( 3666.66666667 3666.66666667 227.12829281 ) ( 3666.66666667 3666.66666667 600 ) ( 3666.66666667 3833.33333333 240.35773294 ) ( 3666.66666667 3833.33333333 600 ) ( 3666.66666667 4000 245.457428503 ) ( 3666.66666667 4000 600 ) ( 3666.66666667 4166.66666667 271.527317218 ) ( 3666.66666667 4166.66666667 600 ) ( 3666.66666667 4333.33333333 278.795261821 ) ( 3666.66666667 4333.33333333 600 ) ( 3666.66666667 4500 284.084541579 ) ( 3666.66666667 4500 600 ) ( 3666.66666667 4666.66666667 294.585799125 ) ( 3666.66666667 4666.66666667 600 ) ( 3666.66666667 4833.33333333 298.464656888 ) ( 3666.66666667 4833.33333333 600 ) ( 3666.66666667 5000 285.15292152 ) ( 3666.66666667 5000 600 ) ( 3666.66666667 5166.66666667 275.594351024 ) ( 3666.66666667 5166.66666667 600 ) ( 3666.66666667 5333.33333333 250.80152781 ) ( 3666.66666667 5333.33333333 600 ) ( 3666.66666667 5500 221.267252648 ) ( 3666.66666667 5500 600 ) ( 3666.66666667 5666.66666667 201.600653195 ) ( 3666.66666667 5666.66666667 600 ) ( 3666.66666667 5833.33333333 200 ) ( 3666.66666667 5833.33333333 600 ) ( 3666.66666667 6000 200 ) ( 3666.66666667 6000 600 ) ( 3666.66666667 6166.66666667 200 ) ( 3666.66666667 6166.66666667 600 ) ( 3666.66666667 6333.33333333 200 ) ( 3666.66666667 6333.33333333 600 ) ( 3666.66666667 6500 200 ) ( 3666.66666667 6500 600 ) ( 3666.66666667 6666.66666667 200 ) ( 3666.66666667 6666.66666667 600 ) ( 3666.66666667 6833.33333333 200 ) ( 3666.66666667 6833.33333333 600 ) ( 3666.66666667 7000 200 ) ( 3666.66666667 7000 600 ) ( 3833.33333333 2000 200 ) ( 3833.33333333 2166.66666667 200 ) ( 3833.33333333 2000 600 ) ( 3833.33333333 2166.66666667 600 ) ( 3833.33333333 2333.33333333 200 ) ( 3833.33333333 2333.33333333 600 ) ( 3833.33333333 2500 200 ) ( 3833.33333333 2500 600 ) ( 3833.33333333 2666.66666667 200 ) ( 3833.33333333 2666.66666667 600 ) ( 3833.33333333 2833.33333333 200 ) ( 3833.33333333 2833.33333333 600 ) ( 3833.33333333 3000 200 ) ( 3833.33333333 3000 600 ) ( 3833.33333333 3166.66666667 200 ) ( 3833.33333333 3166.66666667 600 ) ( 3833.33333333 3333.33333333 203.868731579 ) ( 3833.33333333 3333.33333333 600 ) ( 3833.33333333 3500 219.923721147 ) ( 3833.33333333 3500 600 ) ( 3833.33333333 3666.66666667 240.3579512 ) ( 3833.33333333 3666.66666667 600 ) ( 3833.33333333 3833.33333333 256.678936196 ) ( 3833.33333333 3833.33333333 600 ) ( 3833.33333333 4000 262.578265065 ) ( 3833.33333333 4000 600 ) ( 3833.33333333 4166.66666667 298.52728029 ) ( 3833.33333333 4166.66666667 600 ) ( 3833.33333333 4333.33333333 308.562575483 ) ( 3833.33333333 4333.33333333 600 ) ( 3833.33333333 4500 315.870148971 ) ( 3833.33333333 4500 600 ) ( 3833.33333333 4666.66666667 330.39043622 ) ( 3833.33333333 4666.66666667 600 ) ( 3833.33333333 4833.33333333 335.758140187 ) ( 3833.33333333 4833.33333333 600 ) ( 3833.33333333 5000 317.346673987 ) ( 3833.33333333 5000 600 ) ( 3833.33333333 5166.66666667 306.280800817 ) ( 3833.33333333 5166.66666667 600 ) ( 3833.33333333 5333.33333333 275.59579018 ) ( 3833.33333333 5333.33333333 600 ) ( 3833.33333333 5500 237.216216954 ) ( 3833.33333333 5500 600 ) ( 3833.33333333 5666.66666667 207.142951922 ) ( 3833.33333333 5666.66666667 600 ) ( 3833.33333333 5833.33333333 200 ) ( 3833.33333333 5833.33333333 600 ) ( 3833.33333333 6000 200 ) ( 3833.33333333 6000 600 ) ( 3833.33333333 6166.66666667 200 ) ( 3833.33333333 6166.66666667 600 ) ( 3833.33333333 6333.33333333 200 ) ( 3833.33333333 6333.33333333 600 ) ( 3833.33333333 6500 200 ) ( 3833.33333333 6500 600 ) ( 3833.33333333 6666.66666667 200 ) ( 3833.33333333 6666.66666667 600 ) ( 3833.33333333 6833.33333333 200 ) ( 3833.33333333 6833.33333333 600 ) ( 3833.33333333 7000 200 ) ( 3833.33333333 7000 600 ) ( 4000 2000 200 ) ( 4000 2166.66666667 200 ) ( 4000 2000 600 ) ( 4000 2166.66666667 600 ) ( 4000 2333.33333333 200 ) ( 4000 2333.33333333 600 ) ( 4000 2500 200 ) ( 4000 2500 600 ) ( 4000 2666.66666667 200 ) ( 4000 2666.66666667 600 ) ( 4000 2833.33333333 200 ) ( 4000 2833.33333333 600 ) ( 4000 3000 200 ) ( 4000 3000 600 ) ( 4000 3166.66666667 200 ) ( 4000 3166.66666667 600 ) ( 4000 3333.33333333 205.356191288 ) ( 4000 3333.33333333 600 ) ( 4000 3500 223.35869428 ) ( 4000 3500 600 ) ( 4000 3666.66666667 245.457428503 ) ( 4000 3666.66666667 600 ) ( 4000 3833.33333333 262.578265065 ) ( 4000 3833.33333333 600 ) ( 4000 4000 266.741729736 ) ( 4000 4000 600 ) ( 4000 4166.66666667 305.098553878 ) ( 4000 4166.66666667 600 ) ( 4000 4333.33333333 315.809501198 ) ( 4000 4333.33333333 600 ) ( 4000 4500 323.610229492 ) ( 4000 4500 600 ) ( 4000 4666.66666667 339.113596693 ) ( 4000 4666.66666667 600 ) ( 4000 4833.33333333 344.845866171 ) ( 4000 4833.33333333 600 ) ( 4000 5000 325.186523438 ) ( 4000 5000 600 ) ( 4000 5166.66666667 317.346673987 ) ( 4000 5166.66666667 600 ) ( 4000 5333.33333333 285.15292152 ) ( 4000 5333.33333333 600 ) ( 4000 5500 243.643818728 ) ( 4000 5500 600 ) ( 4000 5666.66666667 209.911146658 ) ( 4000 5666.66666667 600 ) ( 4000 5833.33333333 200 ) ( 4000 5833.33333333 600 ) ( 4000 6000 200 ) ( 4000 6000 600 ) ( 4000 6166.66666667 200 ) ( 4000 6166.66666667 600 ) ( 4000 6333.33333333 200 ) ( 4000 6333.33333333 600 ) ( 4000 6500 200 ) ( 4000 6500 600 ) ( 4000 6666.66666667 200 ) ( 4000 6666.66666667 600 ) ( 4000 6833.33333333 200 ) ( 4000 6833.33333333 600 ) ( 4000 7000 200 ) ( 4000 7000 600 ) ( 4166.66666667 2000 200 ) ( 4166.66666667 2166.66666667 200 ) ( 4166.66666667 2000 600 ) ( 4166.66666667 2166.66666667 600 ) ( 4166.66666667 2333.33333333 200 ) ( 4166.66666667 2333.33333333 600 ) ( 4166.66666667 2500 200 ) ( 4166.66666667 2500 600 ) ( 4166.66666667 2666.66666667 200 ) ( 4166.66666667 2666.66666667 600 ) ( 4166.66666667 2833.33333333 200 ) ( 4166.66666667 2833.33333333 600 ) ( 4166.66666667 3000 200 ) ( 4166.66666667 3000 600 ) ( 4166.66666667 3166.66666667 200 ) ( 4166.66666667 3166.66666667 600 ) ( 4166.66666667 3333.33333333 207.052112464 ) ( 4166.66666667 3333.33333333 600 ) ( 4166.66666667 3500 230.843003335 ) ( 4166.66666667 3500 600 ) ( 4166.66666667 3666.66666667 260.068295605 ) ( 4166.66666667 3666.66666667 600 ) ( 4166.66666667 3833.33333333 282.717667445 ) ( 4166.66666667 3833.33333333 600 ) ( 4166.66666667 4000 288.22785318 ) ( 4166.66666667 4000 600 ) ( 4166.66666667 4166.66666667 291.152652374 ) ( 4166.66666667 4166.66666667 600 ) ( 4166.66666667 4333.33333333 336.028446649 ) ( 4166.66666667 4333.33333333 600 ) ( 4166.66666667 4500 357.958889812 ) ( 4166.66666667 4500 600 ) ( 4166.66666667 4666.66666667 348.830893119 ) ( 4166.66666667 4666.66666667 600 ) ( 4166.66666667 4833.33333333 324.661907125 ) ( 4166.66666667 4833.33333333 600 ) ( 4166.66666667 5000 304.665905937 ) ( 4166.66666667 5000 600 ) ( 4166.66666667 5166.66666667 298.121889907 ) ( 4166.66666667 5166.66666667 600 ) ( 4166.66666667 5333.33333333 271.233618765 ) ( 4166.66666667 5333.33333333 600 ) ( 4166.66666667 5500 236.549350719 ) ( 4166.66666667 5500 600 ) ( 4166.66666667 5666.66666667 208.334006439 ) ( 4166.66666667 5666.66666667 600 ) ( 4166.66666667 5833.33333333 200 ) ( 4166.66666667 5833.33333333 600 ) ( 4166.66666667 6000 200 ) ( 4166.66666667 6000 600 ) ( 4166.66666667 6166.66666667 200 ) ( 4166.66666667 6166.66666667 600 ) ( 4166.66666667 6333.33333333 200 ) ( 4166.66666667 6333.33333333 600 ) ( 4166.66666667 6500 200 ) ( 4166.66666667 6500 600 ) ( 4166.66666667 6666.66666667 200 ) ( 4166.66666667 6666.66666667 600 ) ( 4166.66666667 6833.33333333 200 ) ( 4166.66666667 6833.33333333 600 ) ( 4166.66666667 7000 200 ) ( 4166.66666667 7000 600 ) ( 4333.33333333 2000 200 ) ( 4333.33333333 2166.66666667 200 ) ( 4333.33333333 2000 600 ) ( 4333.33333333 2166.66666667 600 ) ( 4333.33333333 2333.33333333 200 ) ( 4333.33333333 2333.33333333 600 ) ( 4333.33333333 2500 200 ) ( 4333.33333333 2500 600 ) ( 4333.33333333 2666.66666667 200 ) ( 4333.33333333 2666.66666667 600 ) ( 4333.33333333 2833.33333333 200 ) ( 4333.33333333 2833.33333333 600 ) ( 4333.33333333 3000 200 ) ( 4333.33333333 3000 600 ) ( 4333.33333333 3166.66666667 200 ) ( 4333.33333333 3166.66666667 600 ) ( 4333.33333333 3333.33333333 208.234642588 ) ( 4333.33333333 3333.33333333 600 ) ( 4333.33333333 3500 236.105268001 ) ( 4333.33333333 3500 600 ) ( 4333.33333333 3666.66666667 270.363799524 ) ( 4333.33333333 3666.66666667 600 ) ( 4333.33333333 3833.33333333 296.921343132 ) ( 4333.33333333 3833.33333333 600 ) ( 4333.33333333 4000 303.384652977 ) ( 4333.33333333 4000 600 ) ( 4333.33333333 4166.66666667 309.448913007 ) ( 4333.33333333 4166.66666667 600 ) ( 4333.33333333 4333.33333333 330.084668768 ) ( 4333.33333333 4333.33333333 600 ) ( 4333.33333333 4500 371.361800066 ) ( 4333.33333333 4500 600 ) ( 4333.33333333 4666.66666667 352.737089844 ) ( 4333.33333333 4666.66666667 600 ) ( 4333.33333333 4833.33333333 341.411683419 ) ( 4333.33333333 4833.33333333 600 ) ( 4333.33333333 5000 319.771635741 ) ( 4333.33333333 5000 600 ) ( 4333.33333333 5166.66666667 312.274346242 ) ( 4333.33333333 5166.66666667 600 ) ( 4333.33333333 5333.33333333 281.482216272 ) ( 4333.33333333 5333.33333333 600 ) ( 4333.33333333 5500 241.775211138 ) ( 4333.33333333 5500 600 ) ( 4333.33333333 5666.66666667 209.497713015 ) ( 4333.33333333 5666.66666667 600 ) ( 4333.33333333 5833.33333333 200 ) ( 4333.33333333 5833.33333333 600 ) ( 4333.33333333 6000 200 ) ( 4333.33333333 6000 600 ) ( 4333.33333333 6166.66666667 200 ) ( 4333.33333333 6166.66666667 600 ) ( 4333.33333333 6333.33333333 200 ) ( 4333.33333333 6333.33333333 600 ) ( 4333.33333333 6500 200 ) ( 4333.33333333 6500 600 ) ( 4333.33333333 6666.66666667 200 ) ( 4333.33333333 6666.66666667 600 ) ( 4333.33333333 6833.33333333 200 ) ( 4333.33333333 6833.33333333 600 ) ( 4333.33333333 7000 200 ) ( 4333.33333333 7000 600 ) ( 4500 2000 200 ) ( 4500 2166.66666667 200 ) ( 4500 2000 600 ) ( 4500 2166.66666667 600 ) ( 4500 2333.33333333 200 ) ( 4500 2333.33333333 600 ) ( 4500 2500 200 ) ( 4500 2500 600 ) ( 4500 2666.66666667 200 ) ( 4500 2666.66666667 600 ) ( 4500 2833.33333333 200 ) ( 4500 2833.33333333 600 ) ( 4500 3000 200 ) ( 4500 3000 600 ) ( 4500 3166.66666667 200 ) ( 4500 3166.66666667 600 ) ( 4500 3333.33333333 208.658742718 ) ( 4500 3333.33333333 600 ) ( 4500 3500 238.00292369 ) ( 4500 3500 600 ) ( 45