/*--------------------------------*- C++ -*----------------------------------*\
| =========                 |                                                 |
| \\      /  F ield         | OpenFOAM: The Open Source CFD Toolbox           |
|  \\    /   O peration     | Version:  2.0.1                                 |
|   \\  /    A nd           | Web:      www.OpenFOAM.com                      |
|    \\/     M anipulation  |                                                 |
\*---------------------------------------------------------------------------*/
FoamFile
{
    version     2.0;
    format      ascii;
    class       dictionary;
    object      terrainBlockMesherDict;
}
// * * * * * * * * * * * * * * * * * * * * * * * * * * * * * * * * * * * * * //


stl
{
    terrain.stl
    {
        type triSurfaceMesh;

        //tolerance   1E-5;   // optional:non-default tolerance on intersections
        //maxTreeDepth 10;    // optional:depth of octree. Decrease only in case
                              // of memory limitations.
    }
};


coordinates
{

	origin		(0 0 0);
	
	baseVectors	(
				( 1  0  0) // terrain direction 1
				( 0  1  0)  // terrain direction 2
				( 0  0  1) // terrain normal (height direction)
			);

}


blockManager
{

	// Specification of the over all box. Height values will be adjusted to stl.
	// p_corner is the lower left box corner, the above base vectors span the box.
	// Dimensions are lengths scales of the box, wrt base vectors given above.
	p_corner	(581400 4785400 1500);
	dimensions	(900.0 900.0 500.0);

	// a point well above the stl.
	p_above		(0 0 3000.0);

	// the numner of blocks in terrain directions 1 and 2, z will be ignored and set to 1
	blocks		(15 15 1);

	// the number of cells per block in the three directions
	cells		(6 6 30);

	// the maximal distance searched for projection
	maxDistProj	10000;

	// the grading command
	grading		simpleGrading;
	gradingFactors	(1 1 10);

	// the patch names
	patch_name_west	        west;
	patch_name_east	        east;
	patch_name_north	north;
	patch_name_south	south;
	patch_name_sky	        top;
	patch_name_ground	bottom;	
	
	// the patch types
	// (modifyOrography overwrites for makeCyclic-commands)
	patch_type_west	        patch;
	patch_type_east	        patch;
	patch_type_north	patch;
	patch_type_south	patch;
	patch_type_sky	        patch;
	patch_type_ground	wall;

	terrainModification
	{

		// this adds symmetric a hill
		KasmiMassonHill_0
		{

			// the center coordinates
			p_center	(581500 4786100 0);

			// the maximum height
			height		50.0;
	
			// the horizontal extension
			radius		50.0;

			// the resolution
			resolution	0.01;

			// addTypes:
			// 	
			//	'add'		:	hill height is added to local orography
			//	'max'		:	maximum of hill height and orography
			//	'average'	:	average of hill height and orography
			//	'hill'		:	overwrite orography with hill height
			addType		add;

		}
		

		// this adds an oval hill
		OvalKMHill_1
		{

			// the center coordinates
			p_center	(582000 4786000 0);

			// the maximum height
			height		100.0;
	
			// the horizontal dimensions
			radius		200.0;
			coRadius	100.0;

			// the direction of the length axis,
			// the width axis is taken orthogonal
			// note: the z- coodinate will be overwritten by 0,
			// (z corresponds to height here)
			direction_l	(1 1 0);

			// the resolution
			resolution	0.01;

			// addTypes:
			// 	
			//	'add'		:	hill height is added to local orography
			//	'max'		:	maximum of hill height and orography
			//	'average'	:	average of hill height and orography
			//	'hill'		:	overwrite orography with hill height
			addType		add;
		}
	}
}


// ************************************************************************* //
