/*--------------------------------*- C++ -*----------------------------------*\
| =========                 |                                                 |
| \\      /  F ield         | OpenFOAM: The Open Source CFD Toolbox           |
|  \\    /   O peration     | Version:  2.0.1                                 |
|   \\  /    A nd           | Web:      www.OpenFOAM.com                      |
|    \\/     M anipulation  |                                                 |
\*---------------------------------------------------------------------------*/
FoamFile
{
    version     2.0;
    format      ascii;
    class       dictionary;
    object      terrainBlockMesherDict;
}
// * * * * * * * * * * * * * * * * * * * * * * * * * * * * * * * * * * * * * //


stl
{
    terrain.stl
    {
        type triSurfaceMesh;

        //tolerance   1E-5;   // optional:non-default tolerance on intersections
        //maxTreeDepth 10;    // optional:depth of octree. Decrease only in case
                              // of memory limitations.
    }
};



coordinates
{

	origin		(0 0 0);
	
	baseVectors	(
				( 1  0  0) // terrain direction 1
				( 0  1  0) // terrain direction 2			
				( 0  0  1) // terrain normal (height direction)
			);

}


blockManager
{

	// Specification of the over all box. Height values will be adjusted to stl.
	// p_corner is the lower left box corner, the above base vectors span the box.
	// Dimensions are lengths scales of the box, wrt base vectors given above.
	p_corner	(580000 4784000 1500);
	dimensions	(3000.0 3000.0 500.0);
	
	// Parameters for outside-STL-interpolation, if needed.
	// The interpolation to the zero level is so far done by the function
	//         f(s) = (1 - s) * exp(-A * pow(s,B) )
	// 
	stlInsideBox
	{	
		p_corner_inside_stl   	(581400 4785400 1500);
		dimensions_inside_stl 	(900.0 900.0 500.0);
		zeroLevel		939;
		f_constant_A		0.5;
		f_constant_B		0.5;	
	}

	// a point well above the stl.
	p_above		(0 0 3000.0);

	// the numner of blocks in terrain directions 1 and 2, z will be ignored and set to 1
	blocks		(8 12 1);

	// the number of cells per block in the three directions
	cells		(5 4 15);

	// the maximal distance searched for projection
	maxDistProj	10000;

	// the grading command
	grading		simpleGrading;
	gradingFactors	(1 1 10);

	// the patch names
	patch_name_west	        west;
	patch_name_east	        east;
	patch_name_north	north;
	patch_name_south	south;
	patch_name_sky	        top;
	patch_name_ground	bottom;	
	
	// the patch types
	// (modifyOrography overwrites for makeCyclic-commands)
	patch_type_west	        patch;
	patch_type_east	        patch;
	patch_type_north	patch;
	patch_type_south	patch;
	patch_type_sky	        patch;
	patch_type_ground	wall;

	// orthonogalize upward splines
	// uncomment if unwanted
	orthogonalizeUpwardSplines
	{
		splineNormalDistFactor	0.5;
	}
}


// ************************************************************************* //
